DNV2_NS5A-x1149_A_1701_1_DNV2_NS5A-x0249+A+1707+1
     RDKit          3D

 14 15  0  0  0  0  0  0  0  0999 V2000
   -7.3550  -73.8660  -19.7830 N   0  0  0  0  0  0  0  0  0  0  0  0
   -7.2410  -72.4270  -19.4870 C   0  0  0  0  0  0  0  0  0  0  0  0
   -8.5060  -71.7050  -19.9330 C   0  0  0  0  0  0  0  0  0  0  0  0
   -8.5950  -71.1670  -21.2080 C   0  0  0  0  0  0  0  0  0  0  0  0
   -9.7230  -70.4670  -21.6100 C   0  0  0  0  0  0  0  0  0  0  0  0
  -10.7920  -70.3280  -20.7560 C   0  0  0  0  0  0  0  0  0  0  0  0
  -10.7360  -70.8950  -19.4960 C   0  0  0  0  0  0  0  0  0  0  0  0
   -9.5960  -71.5710  -19.0830 C   0  0  0  0  0  0  0  0  0  0  0  0
   -5.9430  -71.7930  -19.9840 C   0  0  0  0  0  0  0  0  0  0  0  0
   -5.5940  -70.5020  -19.6010 C   0  0  0  0  0  0  0  0  0  0  0  0
   -4.4010  -69.9300  -20.0270 C   0  0  0  0  0  0  0  0  0  0  0  0
   -3.5360  -70.6450  -20.8330 C   0  0  0  0  0  0  0  0  0  0  0  0
   -3.8710  -71.9260  -21.2260 C   0  0  0  0  0  0  0  0  0  0  0  0
   -5.0690  -72.4950  -20.8110 C   0  0  0  0  0  0  0  0  0  0  0  0
  2  1  1  0
  9  2  1  0
  9 14  2  0
 14 13  1  0
 13 12  2  0
 12 11  1  0
 11 10  2  0
 10  9  1  0
  3  2  1  0
  3  8  2  0
  8  7  1  0
  7  6  2  0
  6  5  1  0
  5  4  2  0
  4  3  1  0
M  END
$$$$

