DNV2_NS5A-x0153_A_1707_1_DNV2_NS5A-x0249+A+1707+1
     RDKit          3D

 12 12  0  0  0  0  0  0  0  0999 V2000
   -0.9910  -72.0570  -20.8560 Cl  0  0  0  0  0  0  0  0  0  0  0  0
   -0.9540  -70.3260  -20.9360 C   0  0  0  0  0  0  0  0  0  0  0  0
    0.2640  -69.7060  -21.1620 C   0  0  0  0  0  0  0  0  0  0  0  0
    0.3280  -68.3240  -21.2180 C   0  0  0  0  0  0  0  0  0  0  0  0
   -0.8060  -67.5670  -21.0520 C   0  0  0  0  0  0  0  0  0  0  0  0
   -2.0270  -68.1770  -20.8290 C   0  0  0  0  0  0  0  0  0  0  0  0
   -2.1130  -69.5610  -20.7690 C   0  0  0  0  0  0  0  0  0  0  0  0
   -3.7080  -70.2680  -20.4640 S   0  0  0  0  0  0  0  0  0  0  0  0
   -4.0260  -71.1680  -21.5280 O   0  0  0  0  0  0  0  0  0  0  0  0
   -4.5820  -69.1760  -20.1770 O   0  0  0  0  0  0  0  0  0  0  0  0
   -3.6250  -71.1490  -19.1200 N   0  0  0  0  0  0  0  0  0  0  0  0
   -4.1400  -70.5770  -17.8830 C   0  0  0  0  0  0  0  0  0  0  0  0
 12 11  1  0
 11  8  1  0
  9  8  2  0
 10  8  2  0
  8  7  1  0
  7  6  2  0
  6  5  1  0
  5  4  2  0
  4  3  1  0
  3  2  2  0
  7  2  1  0
  2  1  1  0
M  END
$$$$

