DNV2_NS5A-x0160_A_1702_1_DNV2_NS5A-x0254+A+1701+1
     RDKit          3D

 12 13  0  0  0  0  0  0  0  0999 V2000
  -16.2540  -36.8120  -21.4250 C   0  0  0  0  0  0  0  0  0  0  0  0
  -16.7400  -38.2330  -21.3610 C   0  0  0  0  0  0  0  0  0  0  0  0
  -17.4830  -38.9470  -22.3050 C   0  0  0  0  0  0  0  0  0  0  0  0
  -17.6550  -40.1860  -21.7910 N   0  0  0  0  0  0  0  0  0  0  0  0
  -17.0750  -40.3310  -20.5660 N   0  0  0  0  0  0  0  0  0  0  0  0
  -16.5260  -39.1460  -20.3140 C   0  0  0  0  0  0  0  0  0  0  0  0
  -18.0430  -38.5690  -23.6200 C   0  0  0  0  0  0  0  0  0  0  0  0
  -19.1780  -39.1990  -24.1180 C   0  0  0  0  0  0  0  0  0  0  0  0
  -19.6530  -38.8250  -25.3620 C   0  0  0  0  0  0  0  0  0  0  0  0
  -19.0870  -37.8820  -26.1230 N   0  0  0  0  0  0  0  0  0  0  0  0
  -17.9980  -37.2830  -25.6290 C   0  0  0  0  0  0  0  0  0  0  0  0
  -17.4430  -37.5890  -24.4000 C   0  0  0  0  0  0  0  0  0  0  0  0
  2  1  1  0
  2  6  1  0
  6  5  2  0
  5  4  1  0
  4  3  1  0
  3  2  2  0
  7  3  1  0
  7 12  2  0
 12 11  1  0
 11 10  2  0
 10  9  1  0
  9  8  2  0
  8  7  1  0
M  END
$$$$

