Zika_NS5A-x0835_A_1101_1_Zika_NS5A-x0835+A+1101+1
     RDKit          3D

  6  6  0  0  0  0  0  0  0  0999 V2000
  -40.5540  -29.8470  -26.4550 N   0  0  0  0  0  0  0  0  0  0  0  0
  -41.9010  -30.3660  -26.7100 C   0  0  0  0  0  0  0  0  0  0  0  0
  -42.4490  -31.0890  -25.4770 C   0  0  0  0  0  0  0  0  0  0  0  0
  -43.9520  -31.0800  -25.6900 C   0  0  0  0  0  0  0  0  0  0  0  0
  -44.2550  -29.8390  -26.5420 C   0  0  0  0  0  0  0  0  0  0  0  0
  -42.9070  -29.2300  -26.9250 C   0  0  0  0  0  0  0  0  0  0  0  0
  2  1  1  0
  2  6  1  0
  6  5  1  0
  5  4  1  0
  4  3  1  0
  3  2  1  0
M  END
$$$$

