Zika_NS5A-x0736_A_1013_1_Zika_NS5A-x0411+A+1104+1
     RDKit          3D

 14 15  0  0  0  0  0  0  0  0999 V2000
  -17.5620  -33.8020  -20.1710 F   0  0  0  0  0  0  0  0  0  0  0  0
  -18.5150  -34.7560  -20.1940 C   0  0  0  0  0  0  0  0  0  0  0  0
  -19.7860  -34.3790  -20.5570 C   0  0  0  0  0  0  0  0  0  0  0  0
  -20.8180  -35.2850  -20.3830 C   0  0  0  0  0  0  0  0  0  0  0  0
  -20.5590  -36.5350  -19.8660 C   0  0  0  0  0  0  0  0  0  0  0  0
  -19.2600  -36.9030  -19.5500 C   0  0  0  0  0  0  0  0  0  0  0  0
  -18.1950  -36.0240  -19.7320 C   0  0  0  0  0  0  0  0  0  0  0  0
  -16.7630  -36.5050  -19.5470 C   0  0  2  0  0  0  0  0  0  0  0  0
  -16.1820  -36.3780  -18.1380 C   0  0  0  0  0  0  0  0  0  0  0  0
  -14.7320  -36.7560  -18.3160 N   0  0  0  0  0  0  0  0  0  0  0  0
  -14.3550  -36.6220  -19.7610 C   0  0  0  0  0  0  0  0  0  0  0  0
  -15.5460  -35.9750  -20.4670 C   0  0  2  0  0  0  0  0  0  0  0  0
  -15.3140  -34.4880  -20.7030 C   0  0  0  0  0  0  0  0  0  0  0  0
  -15.1880  -33.7490  -19.4930 O   0  0  0  0  0  0  0  0  0  0  0  0
 14 13  1  0
 12 13  1  1
 12  8  1  0
  8  7  1  1
  7  6  2  0
  6  5  1  0
  5  4  2  0
  4  3  1  0
  3  2  2  0
  7  2  1  0
  2  1  1  0
  9  8  1  0
 10  9  1  0
 11 10  1  0
 12 11  1  0
M  END
$$$$

