Zika_NS5A-x0764_A_1112_1_Zika_NS5A-x0351+A+1112+1
     RDKit          3D

 11 11  0  0  0  0  0  0  0  0999 V2000
  -26.6470  -31.6540  -21.9150 O   0  0  0  0  0  0  0  0  0  0  0  0
  -27.4330  -30.4630  -21.7500 S   0  0  0  0  0  0  0  0  0  0  0  0
  -28.6430  -30.3350  -22.5100 O   0  0  0  0  0  0  0  0  0  0  0  0
  -26.4190  -29.0730  -22.0780 C   0  0  0  0  0  0  0  0  0  0  0  0
  -27.8360  -30.2980  -20.0390 C   0  0  0  0  0  0  0  0  0  0  0  0
  -29.1640  -30.2660  -19.6450 C   0  0  0  0  0  0  0  0  0  0  0  0
  -29.4680  -30.1500  -18.3020 C   0  0  0  0  0  0  0  0  0  0  0  0
  -26.8140  -30.2020  -19.1110 C   0  0  0  0  0  0  0  0  0  0  0  0
  -27.1220  -30.0800  -17.7720 C   0  0  0  0  0  0  0  0  0  0  0  0
  -28.4390  -30.0660  -17.3870 C   0  0  0  0  0  0  0  0  0  0  0  0
  -28.8450  -29.9860  -15.5420 Br  0  0  0  0  0  0  0  0  0  0  0  0
 11 10  1  0
 10  7  2  0
  7  6  1  0
  6  5  2  0
  5  2  1  0
  4  2  1  0
  3  2  2  0
  2  1  2  0
  8  5  1  0
  9  8  2  0
 10  9  1  0
M  END
$$$$

