DNV2_NS5A-x0787_A_2101_1_DNV2_NS5A-x0249+A+1707+1
     RDKit          3D

 18 20  0  0  0  0  0  0  0  0999 V2000
   -5.1190  -72.7190  -18.4300 O   0  0  0  0  0  0  0  0  0  0  0  0
   -5.3790  -71.8770  -19.2790 C   0  0  0  0  0  0  0  0  0  0  0  0
   -4.4230  -71.2710  -19.9980 N   0  0  0  0  0  0  0  0  0  0  0  0
   -4.6820  -70.2720  -21.0330 C   0  0  0  0  0  0  0  0  0  0  0  0
   -4.0400  -68.9540  -20.6460 C   0  0  0  0  0  0  0  0  0  0  0  0
   -2.9870  -71.5190  -19.8720 C   0  0  0  0  0  0  0  0  0  0  0  0
   -2.2730  -70.2390  -19.4590 C   0  0  0  0  0  0  0  0  0  0  0  0
   -2.5450  -69.1010  -20.4320 C   0  0  0  0  0  0  0  0  0  0  0  0
   -1.9060  -67.7990  -19.9820 C   0  0  0  0  0  0  0  0  0  0  0  0
   -6.8020  -71.5050  -19.5200 C   0  0  0  0  0  0  0  0  0  0  0  0
   -7.6340  -71.5990  -18.4210 O   0  0  0  0  0  0  0  0  0  0  0  0
   -8.8910  -71.2580  -18.8710 C   0  0  0  0  0  0  0  0  0  0  0  0
   -8.8470  -70.9500  -20.2230 C   0  0  0  0  0  0  0  0  0  0  0  0
   -7.4840  -71.1230  -20.6180 C   0  0  0  0  0  0  0  0  0  0  0  0
  -10.0450  -71.2120  -18.1160 C   0  0  0  0  0  0  0  0  0  0  0  0
  -11.2160  -70.8290  -18.7540 C   0  0  0  0  0  0  0  0  0  0  0  0
  -11.2110  -70.5020  -20.1040 C   0  0  0  0  0  0  0  0  0  0  0  0
  -10.0360  -70.5610  -20.8420 C   0  0  0  0  0  0  0  0  0  0  0  0
  9  8  1  0
  8  5  1  0
  5  4  1  0
  4  3  1  0
  6  3  1  0
  7  6  1  0
  8  7  1  0
  3  2  1  0
  2  1  2  0
 10  2  1  0
 10 14  2  0
 14 13  1  0
 13 18  2  0
 18 17  1  0
 17 16  2  0
 16 15  1  0
 15 12  2  0
 13 12  1  0
 12 11  1  0
 11 10  1  0
M  END
$$$$

