Zika_NS5A-x0501_A_1101_1_Zika_NS5A-x0437+A+1201+1
     RDKit          3D

 11 11  0  0  0  0  0  0  0  0999 V2000
   14.4250  -23.7420  -35.0080 O   0  0  0  0  0  0  0  0  0  0  0  0
   13.9080  -23.0920  -34.0990 C   0  0  0  0  0  0  0  0  0  0  0  0
   13.8460  -21.7680  -34.1330 N   0  0  0  0  0  0  0  0  0  0  0  0
   13.3010  -23.8390  -32.8580 C   0  0  0  0  0  0  0  0  0  0  0  0
   13.1130  -22.9820  -31.6230 C   0  0  0  0  0  0  0  0  0  0  0  0
   11.8480  -22.4910  -31.2650 C   0  0  0  0  0  0  0  0  0  0  0  0
   10.6280  -22.7500  -32.1100 C   0  0  0  0  0  0  0  0  0  0  0  0
   14.2160  -22.6720  -30.8220 C   0  0  0  0  0  0  0  0  0  0  0  0
   14.0820  -21.8760  -29.6910 C   0  0  0  0  0  0  0  0  0  0  0  0
   12.8510  -21.3940  -29.3400 C   0  0  0  0  0  0  0  0  0  0  0  0
   11.7420  -21.7070  -30.1100 C   0  0  0  0  0  0  0  0  0  0  0  0
  7  6  1  0
  6 11  2  0
 11 10  1  0
 10  9  2  0
  9  8  1  0
  8  5  2  0
  6  5  1  0
  5  4  1  0
  4  2  1  0
  2  1  2  0
  3  2  1  0
M  END
$$$$

