FLAVI-RDRP-DLS-JA009
     RDKit          3D

 19 21  0  0  0  0  0  0  0  0999 V2000
  -16.1525  -40.6503  -27.0031 C   0  0  0  0  0  0  0  0  0  0  0  0
  -17.7736  -42.0164  -26.0153 C   0  0  0  0  0  0  0  0  0  0  0  0
  -17.3822  -41.1862  -26.9930 N   0  0  0  0  0  0  0  0  0  0  0  0
  -16.8256  -44.3983  -21.8873 N   0  0  0  0  0  0  0  0  0  0  0  0
  -15.2457  -40.9453  -25.9906 C   0  0  0  0  0  0  0  0  0  0  0  0
  -17.9650  -45.9970  -23.0611 O   0  0  0  0  0  0  0  0  0  0  0  0
  -15.6291  -41.8043  -24.9657 C   0  0  0  0  0  0  0  0  0  0  0  0
  -14.7740  -42.1411  -23.9220 C   0  0  0  0  0  0  0  0  0  0  0  0
  -16.9092  -42.3479  -24.9768 C   0  0  0  0  0  0  0  0  0  0  0  0
  -17.2916  -43.2052  -23.9509 C   0  0  0  0  0  0  0  0  0  0  0  0
  -16.3976  -43.5100  -22.9310 C   0  0  0  0  0  0  0  0  0  0  0  0
  -17.5535  -45.5386  -22.0025 C   0  0  0  0  0  0  0  0  0  0  0  0
  -17.8552  -46.2636  -20.6967 C   0  0  2  0  0  0  0  0  0  0  0  0
  -19.2535  -45.9616  -20.1991 C   0  0  0  0  0  0  0  0  0  0  0  0
  -19.0665  -46.2336  -18.7784 N   0  0  0  0  0  0  0  0  0  0  0  0
  -17.8173  -45.5025  -18.5413 C   0  0  0  0  0  0  0  0  0  0  0  0
  -15.1691  -42.9710  -22.9449 N   0  0  0  0  0  0  0  0  0  0  0  0
  -16.9980  -45.8387  -19.6505 O   0  0  0  0  0  0  0  0  0  0  0  0
  -15.7832  -39.7971  -28.0296 O   0  0  0  0  0  0  0  0  0  0  0  0
  1  3  2  0
  2  3  1  0
  4 11  1  0
  4 12  1  0
  5  7  2  0
  6 12  2  0
  7  8  1  0
  7  9  1  0
  8 17  2  0
  9 10  1  0
 10 11  2  0
 11 17  1  0
 13 12  1  6
 13 14  1  0
 13 18  1  0
 14 15  1  0
 15 16  1  0
 16 18  1  0
  5  1  1  0
  9  2  2  0
  1 19  1  0
M  END
