FLAVI-RDRP-DLS-JA007
     RDKit          3D

 19 21  0  0  0  0  0  0  0  0999 V2000
  -16.1416  -40.6661  -27.0221 C   0  0  0  0  0  0  0  0  0  0  0  0
  -17.7595  -42.0096  -25.9990 C   0  0  0  0  0  0  0  0  0  0  0  0
  -17.3711  -41.2017  -26.9963 N   0  0  0  0  0  0  0  0  0  0  0  0
  -16.7992  -44.2974  -21.8209 N   0  0  0  0  0  0  0  0  0  0  0  0
  -15.2318  -40.9379  -26.0059 C   0  0  0  0  0  0  0  0  0  0  0  0
  -17.8480  -45.9788  -22.9634 O   0  0  0  0  0  0  0  0  0  0  0  0
  -15.6121  -41.7736  -24.9606 C   0  0  0  0  0  0  0  0  0  0  0  0
  -14.7538  -42.0866  -23.9121 C   0  0  0  0  0  0  0  0  0  0  0  0
  -16.8920  -42.3175  -24.9558 C   0  0  0  0  0  0  0  0  0  0  0  0
  -17.2714  -43.1513  -23.9096 C   0  0  0  0  0  0  0  0  0  0  0  0
  -16.3744  -43.4329  -22.8857 C   0  0  0  0  0  0  0  0  0  0  0  0
  -17.4826  -45.4672  -21.9123 C   0  0  0  0  0  0  0  0  0  0  0  0
  -17.7945  -46.1546  -20.5879 C   0  0  2  0  0  0  0  0  0  0  0  0
  -19.2580  -46.0656  -20.2150 C   0  0  0  0  0  0  0  0  0  0  0  0
  -19.2169  -45.9468  -18.7046 C   0  0  0  0  0  0  0  0  0  0  0  0
  -17.9367  -45.1963  -18.4630 C   0  0  0  0  0  0  0  0  0  0  0  0
  -15.1460  -42.8942  -22.9152 N   0  0  0  0  0  0  0  0  0  0  0  0
  -17.0366  -45.5800  -19.5049 O   0  0  0  0  0  0  0  0  0  0  0  0
  -15.7752  -39.8362  -28.0688 O   0  0  0  0  0  0  0  0  0  0  0  0
  1  3  2  0
  2  3  1  0
  4 11  1  0
  4 12  1  0
  5  7  2  0
  6 12  2  0
  7  8  1  0
  7  9  1  0
  8 17  2  0
  9 10  1  0
 10 11  2  0
 11 17  1  0
 13 12  1  6
 13 14  1  0
 13 18  1  0
 14 15  1  0
 15 16  1  0
 16 18  1  0
  5  1  1  0
  9  2  2  0
  1 19  1  0
M  END
