FLAVI-RDRP-DLS-JA013
     RDKit          3D

 15 16  0  0  0  0  0  0  0  0999 V2000
  -17.2681  -44.2103  -22.0050 C   0  0  0  0  0  0  0  0  0  0  0  0
  -16.2823  -42.8298  -23.9776 C   0  0  0  0  0  0  0  0  0  0  0  0
  -16.4838  -38.9538  -27.5663 N   0  0  0  0  0  0  0  0  0  0  0  0
  -16.0106  -40.2251  -27.3752 C   0  0  0  0  0  0  0  0  0  0  0  0
  -15.4081  -40.9791  -25.2498 C   0  0  0  0  0  0  0  0  0  0  0  0
  -15.2277  -40.2175  -24.0389 C   0  0  0  0  0  0  0  0  0  0  0  0
  -15.5843  -40.7736  -22.7883 C   0  0  0  0  0  0  0  0  0  0  0  0
  -16.0954  -42.0594  -22.7326 C   0  0  0  0  0  0  0  0  0  0  0  0
  -15.9398  -42.2832  -25.1877 C   0  0  0  0  0  0  0  0  0  0  0  0
  -16.4655  -41.1599  -28.0417 O   0  0  0  0  0  0  0  0  0  0  0  0
  -15.0755  -40.4492  -26.4854 O   0  0  0  0  0  0  0  0  0  0  0  0
  -16.6114  -42.9921  -21.4656 O   0  0  0  0  0  0  0  0  0  0  0  0
  -17.9225  -44.9886  -21.3830 O   0  0  0  0  0  0  0  0  0  0  0  0
  -16.9166  -44.2809  -23.6010 S   0  0  0  0  0  0  0  0  0  0  0  0
  -14.6846  -38.8908  -24.1028 N   0  0  0  0  0  0  0  0  0  0  0  0
  1 12  1  0
  1 13  2  0
  1 14  1  0
  2  8  2  0
  2  9  1  0
  2 14  1  0
  3  4  1  0
  4 10  2  0
  4 11  1  0
  5  6  1  0
  5  9  2  0
  5 11  1  0
  6  7  2  0
  7  8  1  0
  8 12  1  0
  6 15  1  0
M  END
