FLAVI-RDRP-DLS-JA019
     RDKit          3D

 25 28  0  0  0  0  0  0  0  0999 V2000
  -18.5797  -37.9883  -27.1270 N   0  0  0  0  0  0  0  0  0  0  0  0
  -17.5067  -35.7719  -26.6270 C   0  0  0  0  0  0  0  0  0  0  0  0
  -17.5127  -37.2751  -26.8524 C   0  0  0  0  0  0  0  0  0  0  0  0
  -18.1950  -39.3111  -27.2633 C   0  0  0  0  0  0  0  0  0  0  0  0
  -16.8484  -39.3667  -27.0602 C   0  0  0  0  0  0  0  0  0  0  0  0
  -16.3978  -38.0885  -26.7958 N   0  0  0  0  0  0  0  0  0  0  0  0
  -17.6568  -45.2261  -19.4019 C   0  0  0  0  0  0  0  0  0  0  0  0
  -18.9226  -44.4297  -19.1866 C   0  0  0  0  0  0  0  0  0  0  0  0
  -19.6584  -45.4607  -18.3740 C   0  0  0  0  0  0  0  0  0  0  0  0
  -18.5356  -45.8892  -17.5479 N   0  0  0  0  0  0  0  0  0  0  0  0
  -17.6232  -46.2304  -18.5811 O   0  0  0  0  0  0  0  0  0  0  0  0
  -16.8383  -43.7478  -21.2073 C   0  0  1  0  0  0  0  0  0  0  0  0
  -15.9629  -42.7876  -23.5278 C   0  0  0  0  0  0  0  0  0  0  0  0
  -16.0125  -40.5928  -27.1146 C   0  0  0  0  0  0  0  0  0  0  0  0
  -15.1024  -41.1937  -25.0508 C   0  0  0  0  0  0  0  0  0  0  0  0
  -14.5100  -40.5873  -23.9464 C   0  0  0  0  0  0  0  0  0  0  0  0
  -14.6611  -41.1082  -22.6615 C   0  0  0  0  0  0  0  0  0  0  0  0
  -15.4082  -42.2541  -22.3893 C   0  0  0  0  0  0  0  0  0  0  0  0
  -15.8591  -42.3365  -24.8364 C   0  0  0  0  0  0  0  0  0  0  0  0
  -16.3072  -41.5070  -27.8909 O   0  0  0  0  0  0  0  0  0  0  0  0
  -14.9628  -40.7048  -26.3390 O   0  0  0  0  0  0  0  0  0  0  0  0
  -15.6755  -42.9469  -21.2101 O   0  0  0  0  0  0  0  0  0  0  0  0
  -16.8367  -44.2091  -22.9475 S   0  0  0  0  0  0  0  0  0  0  0  0
  -13.7603  -39.4459  -24.1773 O   0  0  0  0  0  0  0  0  0  0  0  0
  -16.7029  -44.9544  -20.2929 C   0  0  0  0  0  0  0  0  0  0  0  0
  1  3  2  0
  1  4  1  0
  2  3  1  0
  3  6  1  0
  4  5  2  0
  5  6  1  0
  7  8  1  0
  7 11  1  0
  8  9  1  0
  9 10  1  0
 10 11  1  0
 12 22  1  0
 12 23  1  0
 13 18  1  0
 13 19  2  0
 13 23  1  0
 14 20  2  0
 14 21  1  0
 15 16  2  0
 15 19  1  0
 15 21  1  0
 16 17  1  0
 17 18  2  0
 18 22  1  0
 16 24  1  0
 12 25  1  1
 25  7  2  0
 14  5  1  0
M  END
