FLAVI-RDRP-DLS-JA011
     RDKit          3D

 19 21  0  0  0  0  0  0  0  0999 V2000
  -16.2974  -40.7499  -26.8502 C   0  0  0  0  0  0  0  0  0  0  0  0
  -17.9938  -41.9231  -25.7476 C   0  0  0  0  0  0  0  0  0  0  0  0
  -17.5447  -41.2420  -26.8118 N   0  0  0  0  0  0  0  0  0  0  0  0
  -17.2527  -43.7645  -21.3129 N   0  0  0  0  0  0  0  0  0  0  0  0
  -15.4321  -40.9356  -25.7773 C   0  0  0  0  0  0  0  0  0  0  0  0
  -17.3858  -45.7179  -22.5995 C   0  0  0  0  0  0  0  0  0  0  0  0
  -15.8756  -41.6393  -24.6620 C   0  0  0  0  0  0  0  0  0  0  0  0
  -15.0642  -41.8607  -23.5545 C   0  0  0  0  0  0  0  0  0  0  0  0
  -17.1728  -42.1404  -24.6455 C   0  0  0  0  0  0  0  0  0  0  0  0
  -17.6153  -42.8421  -23.5296 C   0  0  0  0  0  0  0  0  0  0  0  0
  -16.7634  -43.0363  -22.4484 C   0  0  0  0  0  0  0  0  0  0  0  0
  -17.5230  -45.1031  -21.4223 C   0  0  0  0  0  0  0  0  0  0  0  0
  -17.9790  -45.8886  -20.2034 C   0  0  2  0  0  0  0  0  0  0  0  0
  -19.2798  -45.3323  -19.6643 C   0  0  0  0  0  0  0  0  0  0  0  0
  -19.1391  -45.7307  -18.2165 C   0  0  0  0  0  0  0  0  0  0  0  0
  -17.7668  -45.2773  -18.0075 N   0  0  0  0  0  0  0  0  0  0  0  0
  -15.5171  -42.5414  -22.4909 N   0  0  0  0  0  0  0  0  0  0  0  0
  -17.0572  -45.7881  -19.1348 O   0  0  0  0  0  0  0  0  0  0  0  0
  -15.8680  -40.0518  -27.9667 O   0  0  0  0  0  0  0  0  0  0  0  0
  1  3  2  0
  2  3  1  0
  4 11  1  0
  4 12  1  0
  5  7  2  0
  6 12  2  0
  7  8  1  0
  7  9  1  0
  8 17  2  0
  9 10  1  0
 10 11  2  0
 11 17  1  0
 13 12  1  6
 13 14  1  0
 13 18  1  0
 14 15  1  0
 15 16  1  0
 16 18  1  0
  5  1  1  0
  9  2  2  0
  1 19  1  0
M  END
