Zika_NS5A-x0922_A_1201_1_Zika_NS5A-x0922+A+1201+1
     RDKit          3D

 15 16  0  0  0  0  0  0  0  0999 V2000
  -12.0370  -73.4860  -18.2570 Br  0  0  0  0  0  0  0  0  0  0  0  0
  -13.8230  -73.1150  -18.7900 C   0  0  0  0  0  0  0  0  0  0  0  0
  -14.8170  -74.0280  -18.4800 C   0  0  0  0  0  0  0  0  0  0  0  0
  -14.1190  -71.9090  -19.4260 C   0  0  0  0  0  0  0  0  0  0  0  0
  -13.1570  -71.0090  -19.7240 O   0  0  0  0  0  0  0  0  0  0  0  0
  -15.4380  -71.6200  -19.7430 C   0  0  0  0  0  0  0  0  0  0  0  0
  -16.4300  -72.5270  -19.4270 C   0  0  0  0  0  0  0  0  0  0  0  0
  -16.1430  -73.7280  -18.7940 C   0  0  0  0  0  0  0  0  0  0  0  0
  -17.2330  -74.6420  -18.4760 C   0  0  0  0  0  0  0  0  0  0  0  0
  -17.1560  -75.6570  -17.8300 O   0  0  0  0  0  0  0  0  0  0  0  0
  -18.4580  -74.2900  -18.9440 O   0  0  0  0  0  0  0  0  0  0  0  0
  -17.7120  -72.2230  -19.8340 O   0  0  0  0  0  0  0  0  0  0  0  0
  -18.7690  -72.8880  -19.0970 C   0  0  0  0  0  0  0  0  0  0  0  0
  -18.9210  -72.2540  -17.7390 C   0  0  0  0  0  0  0  0  0  0  0  0
  -20.0240  -72.7870  -19.9310 C   0  0  0  0  0  0  0  0  0  0  0  0
 15 13  1  0
 14 13  1  0
 13 11  1  0
 11  9  1  0
 10  9  2  0
  9  8  1  0
  8  3  1  0
  3  2  2  0
  2  1  1  0
  4  2  1  0
  5  4  1  0
  6  4  2  0
  7  6  1  0
  8  7  2  0
 12  7  1  0
 13 12  1  0
M  END
$$$$

