DNV2_NS5A-x0411_A_1707_1_DNV2_NS5A-x0411+A+1707+1
     RDKit          3D

 13 14  0  0  0  0  0  0  0  0999 V2000
  -20.1390  -32.6650  -23.9690 C   0  0  0  0  0  0  0  0  0  0  0  0
  -20.2690  -32.7630  -22.5490 O   0  0  0  0  0  0  0  0  0  0  0  0
  -21.5010  -32.5230  -22.0060 C   0  0  0  0  0  0  0  0  0  0  0  0
  -21.5220  -31.7780  -20.8160 C   0  0  0  0  0  0  0  0  0  0  0  0
  -22.7560  -31.5050  -20.2240 C   0  0  0  0  0  0  0  0  0  0  0  0
  -23.9300  -31.9700  -20.7940 C   0  0  0  0  0  0  0  0  0  0  0  0
  -23.8940  -32.7080  -21.9540 C   0  0  0  0  0  0  0  0  0  0  0  0
  -22.6840  -32.9880  -22.5670 C   0  0  0  0  0  0  0  0  0  0  0  0
  -20.3050  -31.3110  -20.1300 C   0  0  0  0  0  0  0  0  0  0  0  0
  -19.1050  -31.2760  -20.7820 O   0  0  0  0  0  0  0  0  0  0  0  0
  -18.2480  -30.8040  -19.8430 C   0  0  0  0  0  0  0  0  0  0  0  0
  -18.8850  -30.5530  -18.7140 N   0  0  0  0  0  0  0  0  0  0  0  0
  -20.2150  -30.8920  -18.9120 N   0  0  0  0  0  0  0  0  0  0  0  0
  2  1  1  0
  3  2  1  0
  3  8  2  0
  8  7  1  0
  7  6  2  0
  6  5  1  0
  5  4  2  0
  4  3  1  0
  9  4  1  0
  9 13  2  0
 13 12  1  0
 12 11  2  0
 11 10  1  0
 10  9  1  0
M  END
$$$$

