Zika_NS5A-x0900_A_1018_1_Zika_NS5A-x0351+A+1112+1
     RDKit          3D

 15 16  0  0  0  0  0  0  0  0999 V2000
  -28.7730  -29.3910  -16.4600 Cl  0  0  0  0  0  0  0  0  0  0  0  0
  -27.6650  -29.9220  -17.6940 C   0  0  0  0  0  0  0  0  0  0  0  0
  -28.1570  -30.3030  -18.9250 C   0  0  0  0  0  0  0  0  0  0  0  0
  -27.2810  -30.7690  -19.8880 C   0  0  0  0  0  0  0  0  0  0  0  0
  -26.3150  -29.9740  -17.4110 C   0  0  0  0  0  0  0  0  0  0  0  0
  -25.4370  -30.4280  -18.3790 C   0  0  0  0  0  0  0  0  0  0  0  0
  -25.9140  -30.8420  -19.6210 C   0  0  0  0  0  0  0  0  0  0  0  0
  -25.0130  -31.3770  -20.5990 N   0  0  0  0  0  0  0  0  0  0  0  0
  -25.1770  -31.2280  -21.9770 C   0  0  0  0  0  0  0  0  0  0  0  0
  -26.2220  -30.9260  -22.5450 O   0  0  0  0  0  0  0  0  0  0  0  0
  -23.9410  -31.4720  -22.5580 N   0  0  0  0  0  0  0  0  0  0  0  0
  -22.9750  -31.7810  -21.6340 C   0  0  0  0  0  0  0  0  0  0  0  0
  -21.7890  -31.9820  -21.8840 O   0  0  0  0  0  0  0  0  0  0  0  0
  -23.6360  -31.7670  -20.2680 C   0  0  2  0  0  0  0  0  0  0  0  0
  -23.5420  -33.0990  -19.5370 C   0  0  0  0  0  0  0  0  0  0  0  0
 14 15  1  6
 14  8  1  0
  9  8  1  0
 10  9  2  0
 11  9  1  0
 12 11  1  0
 14 12  1  0
 13 12  2  0
  8  7  1  0
  7  4  2  0
  4  3  1  0
  3  2  2  0
  2  1  1  0
  5  2  1  0
  6  5  2  0
  7  6  1  0
M  END
$$$$

