DNV2_NS5A-x0210_A_1608_1_DNV2_NS5A-x0210+A+1608+1
     RDKit          3D

 16 17  0  0  0  0  0  0  0  0999 V2000
  -34.6690  -48.7580  -10.2470 O   0  0  0  0  0  0  0  0  0  0  0  0
  -35.5210  -48.4250   -9.1500 S   0  0  0  0  0  0  0  0  0  0  0  0
  -35.2850  -48.9710   -7.8540 O   0  0  0  0  0  0  0  0  0  0  0  0
  -37.1640  -48.8370   -9.6130 C   0  0  0  0  0  0  0  0  0  0  0  0
  -37.5400  -48.7500  -10.9430 C   0  0  0  0  0  0  0  0  0  0  0  0
  -38.8620  -48.9670  -11.2940 C   0  0  0  0  0  0  0  0  0  0  0  0
  -38.0870  -49.1610   -8.6360 C   0  0  0  0  0  0  0  0  0  0  0  0
  -39.4110  -49.3580   -8.9860 C   0  0  0  0  0  0  0  0  0  0  0  0
  -39.7590  -49.2570  -10.3060 C   0  0  0  0  0  0  0  0  0  0  0  0
  -41.0480  -49.4940  -10.6560 F   0  0  0  0  0  0  0  0  0  0  0  0
  -35.4610  -46.7920   -8.9830 N   0  0  0  0  0  0  0  0  0  0  0  0
  -35.1340  -45.9820  -10.1750 C   0  0  0  0  0  0  0  0  0  0  0  0
  -35.4770  -44.5220   -9.9160 C   0  0  0  0  0  0  0  0  0  0  0  0
  -35.2090  -44.0830   -8.5280 N   0  0  0  0  0  0  0  0  0  0  0  0
  -35.9280  -44.8970   -7.5290 C   0  0  0  0  0  0  0  0  0  0  0  0
  -36.4900  -46.1630   -8.1350 C   0  0  0  0  0  0  0  0  0  0  0  0
 10  9  1  0
  9  6  1  0
  6  5  2  0
  5  4  1  0
  7  4  2  0
  8  7  1  0
  9  8  2  0
  4  2  1  0
  3  2  2  0
  2  1  2  0
 11  2  1  0
 11 16  1  0
 16 15  1  0
 15 14  1  0
 14 13  1  0
 13 12  1  0
 12 11  1  0
M  END
$$$$

