DNV2_NS5A-x1046_A_1701_1_DNV2_NS5A-x1046+A+1701+1
     RDKit          3D

  7  7  0  0  0  0  0  0  0  0999 V2000
  -19.1030  -42.8910  -38.1350 O   0  0  0  0  0  0  0  0  0  0  0  0
  -17.9410  -42.5500  -38.4030 C   0  0  0  0  0  0  0  0  0  0  0  0
  -17.2310  -41.7930  -37.5250 N   0  0  0  0  0  0  0  0  0  0  0  0
  -15.9470  -41.3560  -37.6770 N   0  0  0  0  0  0  0  0  0  0  0  0
  -15.3450  -41.6980  -38.7680 C   0  0  0  0  0  0  0  0  0  0  0  0
  -15.9340  -42.4760  -39.7810 C   0  0  0  0  0  0  0  0  0  0  0  0
  -17.2220  -42.8980  -39.6020 C   0  0  0  0  0  0  0  0  0  0  0  0
  2  1  2  0
  2  7  1  0
  7  6  2  0
  6  5  1  0
  5  4  2  0
  4  3  1  0
  3  2  1  0
M  END
$$$$

