Zika_NS5A-x1015_A_1013_1_Zika_NS5A-x0283+A+1101+1
     RDKit          3D

 13 13  0  0  0  0  0  0  0  0999 V2000
  -35.1410  -44.1170  -14.4090 O   0  0  0  0  0  0  0  0  0  0  0  0
  -34.5040  -43.0680  -14.4530 C   0  0  0  0  0  0  0  0  0  0  0  0
  -33.8570  -42.5630  -15.7200 C   0  0  0  0  0  0  0  0  0  0  0  0
  -34.6860  -41.5130  -16.4510 C   0  0  0  0  0  0  0  0  0  0  0  0
  -34.2940  -42.2750  -13.3740 N   0  0  0  0  0  0  0  0  0  0  0  0
  -33.0820  -42.1430  -12.6550 C   0  0  0  0  0  0  0  0  0  0  0  0
  -32.5580  -43.2720  -11.9980 C   0  0  0  0  0  0  0  0  0  0  0  0
  -33.3410  -44.5610  -11.9180 C   0  0  0  0  0  0  0  0  0  0  0  0
  -31.2630  -43.1490  -11.3880 C   0  0  0  0  0  0  0  0  0  0  0  0
  -30.6870  -44.2240  -10.7670 N   0  0  0  0  0  0  0  0  0  0  0  0
  -30.5870  -41.9260  -11.4440 C   0  0  0  0  0  0  0  0  0  0  0  0
  -31.1490  -40.8290  -12.0710 C   0  0  0  0  0  0  0  0  0  0  0  0
  -32.3910  -40.9310  -12.6760 C   0  0  0  0  0  0  0  0  0  0  0  0
  4  3  1  0
  3  2  1  0
  2  1  2  0
  5  2  1  0
  6  5  1  0
  6 13  2  0
 13 12  1  0
 12 11  2  0
 11  9  1  0
 10  9  1  0
  9  7  2  0
  7  6  1  0
  8  7  1  0
M  END
$$$$

