DNV2_NS5A-x0191_A_1608_1_DNV2_NS5A-x0254+A+1701+1
     RDKit          3D

 12 13  0  0  0  0  0  0  0  0999 V2000
  -14.7240  -41.6290  -24.2740 C   0  0  0  0  0  0  0  0  0  0  0  0
  -15.1980  -42.8250  -23.8310 C   0  0  0  0  0  0  0  0  0  0  0  0
  -16.1900  -43.2470  -24.7330 C   0  0  0  0  0  0  0  0  0  0  0  0
  -16.2940  -42.2990  -25.7020 C   0  0  0  0  0  0  0  0  0  0  0  0
  -15.3980  -41.2940  -25.4230 N   0  0  0  0  0  0  0  0  0  0  0  0
  -15.2480  -40.0370  -26.1670 C   0  0  0  0  0  0  0  0  0  0  0  0
  -16.3550  -39.0540  -25.8750 C   0  0  0  0  0  0  0  0  0  0  0  0
  -17.4060  -38.8590  -26.7540 C   0  0  0  0  0  0  0  0  0  0  0  0
  -18.3830  -37.9610  -26.5720 N   0  0  0  0  0  0  0  0  0  0  0  0
  -18.3220  -37.2060  -25.4700 C   0  0  0  0  0  0  0  0  0  0  0  0
  -17.3280  -37.3290  -24.5260 C   0  0  0  0  0  0  0  0  0  0  0  0
  -16.3410  -38.2750  -24.7310 C   0  0  0  0  0  0  0  0  0  0  0  0
  7  6  1  0
  7 12  2  0
 12 11  1  0
 11 10  2  0
 10  9  1  0
  9  8  2  0
  8  7  1  0
  6  5  1  0
  5  4  1  0
  4  3  2  0
  3  2  1  0
  2  1  2  0
  5  1  1  0
M  END
$$$$

