DNV2_NS5A-x1212_A_1608_1_DNV2_NS5A-x0249+A+1707+1
     RDKit          3D

 16 17  0  0  0  0  0  0  0  0999 V2000
  -11.9750  -70.7120  -20.2400 C   0  0  0  0  0  0  0  0  0  0  0  0
  -10.4970  -70.9010  -20.0850 C   0  0  0  0  0  0  0  0  0  0  0  0
  -10.0710  -71.6110  -19.0220 N   0  0  0  0  0  0  0  0  0  0  0  0
   -8.7510  -71.8340  -18.8940 C   0  0  0  0  0  0  0  0  0  0  0  0
   -7.7940  -71.3850  -19.7870 C   0  0  0  0  0  0  0  0  0  0  0  0
   -8.2490  -70.6550  -20.8700 C   0  0  0  0  0  0  0  0  0  0  0  0
   -9.5970  -70.3980  -21.0220 C   0  0  0  0  0  0  0  0  0  0  0  0
   -6.3230  -71.6760  -19.5870 C   0  0  0  0  0  0  0  0  0  0  0  0
   -5.4040  -70.4790  -19.8340 C   0  0  0  0  0  0  0  0  0  0  0  0
   -3.9930  -70.8280  -19.7700 N   0  0  0  0  0  0  0  0  0  0  0  0
   -2.9700  -70.0080  -20.2300 C   0  0  0  0  0  0  0  0  0  0  0  0
   -3.2500  -68.7610  -20.7820 C   0  0  0  0  0  0  0  0  0  0  0  0
   -2.2210  -67.9690  -21.2650 C   0  0  0  0  0  0  0  0  0  0  0  0
   -0.9140  -68.3940  -21.1800 C   0  0  0  0  0  0  0  0  0  0  0  0
   -0.6280  -69.6240  -20.6310 C   0  0  0  0  0  0  0  0  0  0  0  0
   -1.6490  -70.4360  -20.1580 C   0  0  0  0  0  0  0  0  0  0  0  0
  2  1  1  0
  2  7  2  0
  7  6  1  0
  6  5  2  0
  8  5  1  0
  9  8  1  0
 10  9  1  0
 11 10  1  0
 11 16  2  0
 16 15  1  0
 15 14  2  0
 14 13  1  0
 13 12  2  0
 12 11  1  0
  5  4  1  0
  4  3  2  0
  3  2  1  0
M  END
$$$$

