FLAVI-RDRP-DLS-JA023
     RDKit          3D

 28 31  0  0  0  0  0  0  0  0999 V2000
  -15.0572  -41.6783  -23.2557 C   0  0  0  0  0  0  0  0  0  0  0  0
  -17.3501  -38.9905  -26.7917 C   0  0  0  0  0  0  0  0  0  0  0  0
  -16.4082  -40.1843  -27.0842 C   0  0  0  0  0  0  0  0  0  0  0  0
  -15.0137  -40.3748  -25.1938 C   0  0  0  0  0  0  0  0  0  0  0  0
  -14.7727  -39.2876  -24.3530 C   0  0  0  0  0  0  0  0  0  0  0  0
  -14.7033  -39.4402  -22.9686 C   0  0  0  0  0  0  0  0  0  0  0  0
  -14.8845  -40.6684  -22.3494 C   0  0  0  0  0  0  0  0  0  0  0  0
  -15.1499  -41.6304  -24.6320 C   0  0  0  0  0  0  0  0  0  0  0  0
  -16.7796  -41.0998  -27.7598 O   0  0  0  0  0  0  0  0  0  0  0  0
  -15.0958  -40.2202  -26.5678 O   0  0  0  0  0  0  0  0  0  0  0  0
  -14.9125  -40.9504  -20.9914 O   0  0  0  0  0  0  0  0  0  0  0  0
  -15.2265  -43.3582  -22.7693 S   0  0  0  0  0  0  0  0  0  0  0  0
  -15.8899  -44.6425  -19.2329 C   0  0  0  0  0  0  0  0  0  0  0  0
  -14.8314  -43.8006  -18.5361 C   0  0  1  0  0  0  0  0  0  0  0  0
  -14.8842  -42.3615  -19.0291 C   0  0  2  0  0  0  0  0  0  0  0  0
  -14.6872  -42.2659  -20.5356 C   0  0  1  0  0  0  0  0  0  0  0  0
  -15.8091  -43.1357  -21.0876 C   0  0  2  0  0  0  0  0  0  0  0  0
  -15.6849  -44.6002  -20.7323 C   0  0  2  0  0  0  0  0  0  0  0  0
  -14.1194  -40.4059  -17.5973 C   0  0  0  0  0  0  0  0  0  0  0  0
  -15.0474  -43.8566  -17.0326 C   0  0  0  0  0  0  0  0  0  0  0  0
  -16.7934  -45.4451  -21.3387 C   0  0  0  0  0  0  0  0  0  0  0  0
  -17.1024  -46.6721  -20.8239 C   0  0  0  0  0  0  0  0  0  0  0  0
  -18.0040  -47.3718  -21.5304 C   0  0  0  0  0  0  0  0  0  0  0  0
  -18.4419  -46.7835  -22.6386 C   0  0  0  0  0  0  0  0  0  0  0  0
  -13.8911  -41.6082  -18.3488 O   0  0  0  0  0  0  0  0  0  0  0  0
  -15.9707  -43.2312  -16.4647 O   0  0  0  0  0  0  0  0  0  0  0  0
  -14.2895  -44.5464  -16.3043 O   0  0  0  0  0  0  0  0  0  0  0  0
  -17.7076  -45.2664  -22.7745 S   0  0  0  0  0  0  0  0  0  0  0  0
  1  7  1  0
  1  8  2  0
  1 12  1  0
  2  3  1  0
  3  9  2  0
  3 10  1  0
  4  5  2  0
  4  8  1  0
  4 10  1  0
  5  6  1  0
  6  7  2  0
  7 11  1  0
 13 14  1  0
 13 18  1  0
 14 15  1  0
 14 20  1  1
 15 16  1  0
 15 25  1  1
 16 17  1  0
 17 18  1  0
 18 21  1  6
 19 25  1  0
 20 26  2  0
 20 27  1  0
 21 22  2  0
 21 28  1  0
 22 23  1  0
 23 24  2  0
 24 28  1  0
 17 12  1  6
 16 11  1  6
M  CHG  1  27  -1
M  END
