FLAVI-RDRP-DLS-JA032
     RDKit          3D

 24 26  0  0  0  0  0  0  0  0999 V2000
  -19.4215  -38.1362  -26.4812 N   0  0  0  0  0  0  0  0  0  0  0  0
  -16.2788  -40.2205  -26.7942 C   0  0  0  0  0  0  0  0  0  0  0  0
  -17.1954  -39.0509  -26.5330 C   0  0  0  0  0  0  0  0  0  0  0  0
  -16.6924  -37.8171  -26.1684 C   0  0  0  0  0  0  0  0  0  0  0  0
  -17.5470  -36.7451  -25.9843 C   0  0  0  0  0  0  0  0  0  0  0  0
  -18.8971  -36.9490  -26.1551 C   0  0  0  0  0  0  0  0  0  0  0  0
  -18.5694  -39.1547  -26.6668 C   0  0  0  0  0  0  0  0  0  0  0  0
  -16.3785  -42.4494  -25.9485 C   0  0  0  0  0  0  0  0  0  0  0  0
  -14.7097  -40.9181  -25.0805 C   0  0  0  0  0  0  0  0  0  0  0  0
  -16.0801  -41.0530  -25.5990 N   0  0  1  0  0  0  0  0  0  0  0  0
  -15.9005  -43.4064  -24.8655 C   0  0  0  0  0  0  0  0  0  0  0  0
  -16.6500  -44.4605  -20.4609 C   0  0  0  0  0  0  0  0  0  0  0  0
  -15.3321  -44.4732  -19.7039 C   0  0  1  0  0  0  0  0  0  0  0  0
  -14.6559  -43.1312  -19.9404 C   0  0  2  0  0  0  0  0  0  0  0  0
  -14.3708  -42.9113  -21.4254 C   0  0  0  0  0  0  0  0  0  0  0  0
  -15.2328  -43.6421  -22.4609 C   0  0  1  0  0  0  0  0  0  0  0  0
  -16.4183  -44.4702  -21.9725 C   0  0  0  0  0  0  0  0  0  0  0  0
  -14.5237  -41.6853  -23.7809 C   0  0  0  0  0  0  0  0  0  0  0  0
  -12.5846  -41.8718  -19.1770 C   0  0  0  0  0  0  0  0  0  0  0  0
  -15.5831  -44.6408  -18.2141 C   0  0  0  0  0  0  0  0  0  0  0  0
  -15.6570  -42.6749  -23.5549 C   0  0  1  0  0  0  0  0  0  0  0  0
  -13.4555  -43.0136  -19.1909 O   0  0  0  0  0  0  0  0  0  0  0  0
  -16.7247  -44.5394  -17.7117 O   0  0  0  0  0  0  0  0  0  0  0  0
  -14.6320  -44.8909  -17.4309 O   0  0  0  0  0  0  0  0  0  0  0  0
  1  6  2  0
  1  7  1  0
  2  3  1  0
 10  2  1  6
  3  4  1  0
  3  7  2  0
  4  5  2  0
  5  6  1  0
  8 10  1  0
  9 10  1  0
  8 11  1  0
 12 13  1  0
 12 17  1  0
 13 14  1  0
 13 20  1  1
 14 15  1  0
 14 22  1  1
 16 15  1  1
 16 17  1  0
 16 21  1  0
 21 18  1  6
 19 22  1  0
 20 23  2  0
 20 24  1  0
 18  9  1  0
 21 11  1  0
M  CHG  2  10   1  24  -1
M  END
