FLAVI-RDRP-DLS-JA026
     RDKit          3D

 26 28  0  0  0  0  0  0  0  0999 V2000
  -17.7789  -38.4782  -26.5171 N   0  0  0  0  0  0  0  0  0  0  0  0
  -16.5555  -38.8619  -26.1231 C   0  0  0  0  0  0  0  0  0  0  0  0
  -15.5143  -38.4156  -26.6370 O   0  0  0  0  0  0  0  0  0  0  0  0
  -17.4881  -40.8269  -24.9360 C   0  0  0  0  0  0  0  0  0  0  0  0
  -17.6383  -41.2514  -23.4789 C   0  0  0  0  0  0  0  0  0  0  0  0
  -15.5731  -40.2711  -22.8381 C   0  0  0  0  0  0  0  0  0  0  0  0
  -15.2688  -39.7762  -24.2475 C   0  0  0  0  0  0  0  0  0  0  0  0
  -16.4410  -39.8100  -25.1409 N   0  0  0  0  0  0  0  0  0  0  0  0
  -16.3559  -41.5209  -22.8024 N   0  0  0  0  0  0  0  0  0  0  0  0
  -16.5966  -44.3523  -20.4882 C   0  0  0  0  0  0  0  0  0  0  0  0
  -15.4139  -44.3832  -19.7072 C   0  0  1  0  0  0  0  0  0  0  0  0
  -14.6504  -43.2202  -19.9152 C   0  0  2  0  0  0  0  0  0  0  0  0
  -14.5035  -42.9428  -21.2925 C   0  0  0  0  0  0  0  0  0  0  0  0
  -15.3251  -43.5426  -22.2791 C   0  0  1  0  0  0  0  0  0  0  0  0
  -16.4691  -44.3293  -21.9103 C   0  0  2  0  0  0  0  0  0  0  0  0
  -12.4932  -42.1057  -19.3300 C   0  0  0  0  0  0  0  0  0  0  0  0
  -15.6348  -44.6617  -18.3338 C   0  0  0  0  0  0  0  0  0  0  0  0
  -17.7096  -44.3427  -22.4913 C   0  0  0  0  0  0  0  0  0  0  0  0
  -18.8389  -44.1866  -21.7388 C   0  0  0  0  0  0  0  0  0  0  0  0
  -19.9914  -44.3540  -22.4061 C   0  0  0  0  0  0  0  0  0  0  0  0
  -19.8666  -44.6739  -23.6898 C   0  0  0  0  0  0  0  0  0  0  0  0
  -15.6536  -42.6503  -23.3338 O   0  0  0  0  0  0  0  0  0  0  0  0
  -13.4302  -43.1934  -19.2917 O   0  0  0  0  0  0  0  0  0  0  0  0
  -16.7782  -44.6599  -17.8254 O   0  0  0  0  0  0  0  0  0  0  0  0
  -14.6691  -44.9236  -17.5726 O   0  0  0  0  0  0  0  0  0  0  0  0
  -18.2217  -44.7318  -24.0774 S   0  0  0  0  0  0  0  0  0  0  0  0
  1  2  1  0
  2  3  2  0
  2  8  1  0
  4  5  1  0
  4  8  1  0
  5  9  1  0
  6  7  1  0
  6  9  1  0
  7  8  1  0
 10 11  1  0
 10 15  1  0
 11 12  1  0
 11 17  1  1
 12 13  1  0
 12 23  1  6
 13 14  1  0
 14 15  1  0
 14 22  1  6
 15 18  1  6
 16 23  1  0
 17 24  2  0
 17 25  1  0
 18 19  2  0
 18 26  1  0
 19 20  1  0
 20 21  2  0
 21 26  1  0
  9 22  1  0
M  CHG  1  25  -1
M  END
