FLAVI-RDRP-DLS-JA030
     RDKit          3D

 28 30  0  0  0  0  0  0  0  0999 V2000
  -18.7528  -38.3648  -27.1555 N   0  0  0  0  0  0  0  0  0  0  0  0
  -15.5966  -40.2864  -26.3406 C   0  0  0  0  0  0  0  0  0  0  0  0
  -16.7466  -39.3165  -26.2261 C   0  0  0  0  0  0  0  0  0  0  0  0
  -16.8479  -38.4529  -25.1526 C   0  0  0  0  0  0  0  0  0  0  0  0
  -17.8822  -37.5363  -25.0935 C   0  0  0  0  0  0  0  0  0  0  0  0
  -18.8047  -37.5252  -26.1147 C   0  0  0  0  0  0  0  0  0  0  0  0
  -17.7325  -39.2337  -27.1944 C   0  0  0  0  0  0  0  0  0  0  0  0
  -16.3945  -42.6040  -25.6518 C   0  0  0  0  0  0  0  0  0  0  0  0
  -15.0220  -41.1970  -24.0335 C   0  0  0  0  0  0  0  0  0  0  0  0
  -15.6710  -41.3625  -25.3420 N   0  0  2  0  0  0  0  0  0  0  0  0
  -15.8645  -44.4080  -19.5557 C   0  0  0  0  0  0  0  0  0  0  0  0
  -14.8235  -43.8510  -18.7710 C   0  0  1  0  0  0  0  0  0  0  0  0
  -14.4749  -42.5726  -19.2428 C   0  0  2  0  0  0  0  0  0  0  0  0
  -14.2922  -42.5752  -20.6436 C   0  0  0  0  0  0  0  0  0  0  0  0
  -14.7639  -43.6266  -21.4682 C   0  0  1  0  0  0  0  0  0  0  0  0
  -15.6107  -44.6591  -20.9382 C   0  0  2  0  0  0  0  0  0  0  0  0
  -14.3952  -42.5150  -23.6085 C   0  0  0  0  0  0  0  0  0  0  0  0
  -12.7852  -40.7478  -19.0127 C   0  0  0  0  0  0  0  0  0  0  0  0
  -15.0748  -43.8760  -17.3750 C   0  0  0  0  0  0  0  0  0  0  0  0
  -16.7111  -45.2319  -21.5193 C   0  0  0  0  0  0  0  0  0  0  0  0
  -17.2269  -46.4034  -21.0426 C   0  0  0  0  0  0  0  0  0  0  0  0
  -18.2182  -46.9274  -21.7804 C   0  0  0  0  0  0  0  0  0  0  0  0
  -18.5332  -46.2480  -22.8782 C   0  0  0  0  0  0  0  0  0  0  0  0
  -15.2538  -43.1724  -22.6881 O   0  0  0  0  0  0  0  0  0  0  0  0
  -13.4023  -41.9851  -18.6242 O   0  0  0  0  0  0  0  0  0  0  0  0
  -16.0571  -43.2963  -16.8607 O   0  0  0  0  0  0  0  0  0  0  0  0
  -14.3023  -44.4936  -16.5987 O   0  0  0  0  0  0  0  0  0  0  0  0
  -17.5572  -44.8699  -22.9623 S   0  0  0  0  0  0  0  0  0  0  0  0
  1  6  2  0
  1  7  1  0
  2  3  1  0
  2 10  1  0
  3  4  1  0
  3  7  2  0
  4  5  2  0
  5  6  1  0
 10  8  1  6
  9 10  1  0
 11 12  1  0
 11 16  1  0
 12 13  1  0
 12 19  1  1
 13 14  1  0
 13 25  1  1
 14 15  1  0
 15 16  1  0
 15 24  1  6
 16 20  1  6
 17 24  1  0
 18 25  1  0
 19 26  2  0
 19 27  1  0
 20 21  2  0
 20 28  1  0
 21 22  1  0
 22 23  2  0
 23 28  1  0
 17  9  1  0
M  CHG  2  10   1  27  -1
M  END
