FLAVI-RDRP-DLS-JA029
     RDKit          3D

 26 28  0  0  0  0  0  0  0  0999 V2000
  -18.5916  -38.2286  -27.1127 N   0  0  0  0  0  0  0  0  0  0  0  0
  -17.8103  -35.9719  -26.5124 C   0  0  0  0  0  0  0  0  0  0  0  0
  -17.6577  -37.4491  -26.6507 C   0  0  0  0  0  0  0  0  0  0  0  0
  -18.1523  -39.5363  -27.1025 C   0  0  0  0  0  0  0  0  0  0  0  0
  -16.9086  -39.7671  -26.6386 C   0  0  0  0  0  0  0  0  0  0  0  0
  -16.2017  -41.0775  -26.4956 C   0  0  0  0  0  0  0  0  0  0  0  0
  -17.1366  -42.4587  -24.5557 C   0  0  0  0  0  0  0  0  0  0  0  0
  -16.8124  -43.0648  -23.3459 C   0  0  0  0  0  0  0  0  0  0  0  0
  -18.8906  -44.1120  -23.3404 C   0  0  0  0  0  0  0  0  0  0  0  0
  -19.2693  -43.5314  -24.5508 C   0  0  0  0  0  0  0  0  0  0  0  0
  -18.3635  -42.6792  -25.1771 C   0  0  0  0  0  0  0  0  0  0  0  0
  -20.4525  -43.7596  -25.1138 F   0  0  0  0  0  0  0  0  0  0  0  0
  -16.1522  -41.5912  -25.1369 N   0  0  0  0  0  0  0  0  0  0  0  0
  -17.6978  -43.8836  -22.7614 N   0  0  0  0  0  0  0  0  0  0  0  0
  -16.1944  -38.2585  -26.1778 S   0  0  0  0  0  0  0  0  0  0  0  0
  -17.3769  -46.5676  -20.1275 C   0  0  0  0  0  0  0  0  0  0  0  0
  -15.8832  -46.4811  -19.8567 C   0  0  1  0  0  0  0  0  0  0  0  0
  -15.4363  -45.0291  -19.9337 C   0  0  2  0  0  0  0  0  0  0  0  0
  -15.7975  -44.4133  -21.2765 C   0  0  0  0  0  0  0  0  0  0  0  0
  -17.3013  -44.5015  -21.4872 C   0  0  2  0  0  0  0  0  0  0  0  0
  -17.7185  -45.9635  -21.4804 C   0  0  0  0  0  0  0  0  0  0  0  0
  -13.2090  -43.8055  -19.9661 C   0  0  0  0  0  0  0  0  0  0  0  0
  -15.6166  -47.0575  -18.4757 C   0  0  0  0  0  0  0  0  0  0  0  0
  -14.0359  -44.9518  -19.7116 O   0  0  0  0  0  0  0  0  0  0  0  0
  -16.3933  -46.8739  -17.5119 O   0  0  0  0  0  0  0  0  0  0  0  0
  -14.5883  -47.7480  -18.2601 O   0  0  0  0  0  0  0  0  0  0  0  0
  1  3  2  0
  1  4  1  0
  2  3  1  0
  3 15  1  0
  4  5  2  0
  5  6  1  0
  5 15  1  0
  6 13  1  0
  7  8  2  0
  7 11  1  0
  7 13  1  0
  8 14  1  0
  9 10  1  0
  9 14  2  0
 10 11  2  0
 10 12  1  0
 16 17  1  0
 16 21  1  0
 17 18  1  0
 17 23  1  1
 18 19  1  0
 18 24  1  6
 19 20  1  0
 20 21  1  0
 22 24  1  0
 23 25  2  0
 23 26  1  0
 20 14  1  6
M  CHG  2  14   1  26  -1
M  END
