FLAVI-RDRP-DLS-JA028
     RDKit          3D

 26 28  0  0  0  0  0  0  0  0999 V2000
  -18.6754  -38.1675  -27.1096 N   0  0  0  0  0  0  0  0  0  0  0  0
  -18.1834  -35.8741  -26.3606 C   0  0  0  0  0  0  0  0  0  0  0  0
  -17.8283  -37.2935  -26.6496 C   0  0  0  0  0  0  0  0  0  0  0  0
  -18.0494  -39.3880  -27.2573 C   0  0  0  0  0  0  0  0  0  0  0  0
  -16.7482  -39.4609  -26.9152 C   0  0  0  0  0  0  0  0  0  0  0  0
  -15.8461  -40.6534  -26.9521 C   0  0  0  0  0  0  0  0  0  0  0  0
  -16.4769  -41.8654  -24.7892 C   0  0  0  0  0  0  0  0  0  0  0  0
  -16.1419  -41.9511  -23.4442 C   0  0  0  0  0  0  0  0  0  0  0  0
  -18.2265  -43.0970  -23.0838 C   0  0  0  0  0  0  0  0  0  0  0  0
  -18.5708  -43.0152  -24.4321 C   0  0  0  0  0  0  0  0  0  0  0  0
  -17.6690  -42.3859  -25.2851 C   0  0  0  0  0  0  0  0  0  0  0  0
  -19.7081  -43.5098  -24.9122 F   0  0  0  0  0  0  0  0  0  0  0  0
  -15.5309  -41.2122  -25.6480 N   0  0  0  0  0  0  0  0  0  0  0  0
  -17.0336  -42.5776  -22.5831 C   0  0  0  0  0  0  0  0  0  0  0  0
  -16.2248  -37.9029  -26.3702 S   0  0  0  0  0  0  0  0  0  0  0  0
  -16.9681  -43.8942  -19.0040 C   0  0  0  0  0  0  0  0  0  0  0  0
  -15.4649  -43.9343  -18.7803 C   0  0  1  0  0  0  0  0  0  0  0  0
  -14.7865  -42.7619  -19.4722 C   0  0  2  0  0  0  0  0  0  0  0  0
  -15.1359  -42.7348  -20.9521 C   0  0  0  0  0  0  0  0  0  0  0  0
  -16.6463  -42.6606  -21.1155 C   0  0  2  0  0  0  0  0  0  0  0  0
  -17.2859  -43.8898  -20.4907 C   0  0  0  0  0  0  0  0  0  0  0  0
  -12.4277  -41.8837  -19.8248 C   0  0  0  0  0  0  0  0  0  0  0  0
  -15.2073  -43.9029  -17.2827 C   0  0  0  0  0  0  0  0  0  0  0  0
  -13.3793  -42.8169  -19.2897 O   0  0  0  0  0  0  0  0  0  0  0  0
  -15.9699  -43.3145  -16.4838 O   0  0  0  0  0  0  0  0  0  0  0  0
  -14.2009  -44.4787  -16.7962 O   0  0  0  0  0  0  0  0  0  0  0  0
  1  3  2  0
  1  4  1  0
  2  3  1  0
  3 15  1  0
  4  5  2  0
  5  6  1  0
  5 15  1  0
  6 13  1  0
  7  8  2  0
  7 11  1  0
  7 13  1  0
  8 14  1  0
  9 10  1  0
  9 14  2  0
 10 11  2  0
 10 12  1  0
 16 17  1  0
 16 21  1  0
 17 18  1  0
 17 23  1  1
 18 19  1  0
 18 24  1  6
 19 20  1  0
 20 21  1  0
 22 24  1  0
 23 25  2  0
 23 26  1  0
 20 14  1  6
M  CHG  1  26  -1
M  END
