Zika_NS5A-x0736_A_1101_1_Zika_NS5A-x0411+A+1104+1
     RDKit          3D

 14 15  0  0  0  0  0  0  0  0999 V2000
  -16.8850  -20.2540  -21.1650 F   0  0  0  0  0  0  0  0  0  0  0  0
  -17.5960  -21.3580  -20.8430 C   0  0  0  0  0  0  0  0  0  0  0  0
  -18.9520  -21.2360  -20.6510 C   0  0  0  0  0  0  0  0  0  0  0  0
  -19.6690  -22.3600  -20.2840 C   0  0  0  0  0  0  0  0  0  0  0  0
  -19.0230  -23.5600  -20.1190 C   0  0  0  0  0  0  0  0  0  0  0  0
  -17.6570  -23.6550  -20.3320 C   0  0  0  0  0  0  0  0  0  0  0  0
  -16.9100  -22.5440  -20.7070 C   0  0  0  0  0  0  0  0  0  0  0  0
  -15.4210  -22.6090  -20.9900 C   0  0  2  0  0  0  0  0  0  0  0  0
  -14.8180  -24.0010  -21.1430 C   0  0  0  0  0  0  0  0  0  0  0  0
  -13.3650  -23.7410  -21.1120 N   0  0  0  0  0  0  0  0  0  0  0  0
  -13.1490  -22.5600  -20.2310 C   0  0  0  0  0  0  0  0  0  0  0  0
  -14.5230  -21.9640  -19.9110 C   0  0  2  0  0  0  0  0  0  0  0  0
  -14.9510  -22.2060  -18.4740 C   0  0  0  0  0  0  0  0  0  0  0  0
  -14.7460  -23.5600  -18.0990 O   0  0  0  0  0  0  0  0  0  0  0  0
 14 13  1  0
 12 13  1  1
 12  8  1  0
  8  7  1  1
  7  6  2  0
  6  5  1  0
  5  4  2  0
  4  3  1  0
  3  2  2  0
  7  2  1  0
  2  1  1  0
  9  8  1  0
 10  9  1  0
 11 10  1  0
 12 11  1  0
M  END
$$$$

