Zika_NS5A-x0903_A_1201_1_Zika_NS5A-x0903+A+1201+1
     RDKit          3D

 15 17  0  0  0  0  0  0  0  0999 V2000
   15.6050  -15.5760  -24.5940 O   0  0  0  0  0  0  0  0  0  0  0  0
   15.3450  -14.4290  -24.9200 C   0  0  0  0  0  0  0  0  0  0  0  0
   14.5500  -13.5550  -24.2380 N   0  0  0  0  0  0  0  0  0  0  0  0
   15.8520  -13.7070  -26.1880 C   0  0  2  0  0  0  0  0  0  0  0  0
   15.2420  -12.3960  -25.9950 N   0  0  0  0  0  0  0  0  0  0  0  0
   14.4730  -12.3270  -24.8800 C   0  0  0  0  0  0  0  0  0  0  0  0
   13.7980  -11.3730  -24.5060 O   0  0  0  0  0  0  0  0  0  0  0  0
   15.4820  -14.3530  -27.5100 C   0  0  0  0  0  0  0  0  0  0  0  0
   16.6040  -14.5560  -28.2990 C   0  0  0  0  0  0  0  0  0  0  0  0
   17.8100  -13.8960  -27.6910 C   0  0  0  0  0  0  0  0  0  0  0  0
   17.4060  -13.6740  -26.2240 C   0  0  0  0  0  0  0  0  0  0  0  0
   14.2320  -14.7750  -27.9430 C   0  0  0  0  0  0  0  0  0  0  0  0
   14.1160  -15.4360  -29.1580 C   0  0  0  0  0  0  0  0  0  0  0  0
   15.2350  -15.6680  -29.9360 C   0  0  0  0  0  0  0  0  0  0  0  0
   16.4800  -15.2300  -29.5110 C   0  0  0  0  0  0  0  0  0  0  0  0
  7  6  2  0
  6  3  1  0
  3  2  1  0
  2  1  2  0
  4  2  1  0
  4 11  1  1
 11 10  1  0
 10  9  1  0
  9 15  2  0
 15 14  1  0
 14 13  2  0
 13 12  1  0
 12  8  2  0
  9  8  1  0
  8  4  1  0
  5  4  1  0
  6  5  1  0
M  END
$$$$

