DNV2_NS5A-x0288_A_1701_1_DNV2_NS5A-x0288+A+1701+1
     RDKit          3D

 10 10  0  0  0  0  0  0  0  0999 V2000
    3.1140  -20.4660  -47.7640 O   0  0  0  0  0  0  0  0  0  0  0  0
    3.8940  -21.2290  -47.1980 C   0  0  0  0  0  0  0  0  0  0  0  0
    5.1780  -20.9260  -47.0190 N   0  0  0  0  0  0  0  0  0  0  0  0
    5.8670  -19.9600  -47.8560 C   0  0  0  0  0  0  0  0  0  0  0  0
    3.4450  -22.5540  -46.7110 C   0  0  0  0  0  0  0  0  0  0  0  0
    1.9120  -23.1290  -47.3040 S   0  0  0  0  0  0  0  0  0  0  0  0
    2.2060  -24.6520  -46.5280 C   0  0  0  0  0  0  0  0  0  0  0  0
    1.2730  -25.8040  -46.6930 C   0  0  0  0  0  0  0  0  0  0  0  0
    3.3220  -24.7210  -45.8610 N   0  0  0  0  0  0  0  0  0  0  0  0
    4.0140  -23.5360  -45.9600 C   0  0  0  0  0  0  0  0  0  0  0  0
  4  3  1  0
  3  2  1  0
  2  1  2  0
  5  2  1  0
  5 10  2  0
 10  9  1  0
  9  7  2  0
  8  7  1  0
  7  6  1  0
  6  5  1  0
M  END
$$$$

