DNV2_NS5A-x0829_A_1701_1_DNV2_NS5A-x0135+A+1608+1
     RDKit          3D

 10 10  0  0  0  0  0  0  0  0999 V2000
  -34.1390  -68.8690   -7.4810 O   0  0  0  0  0  0  0  0  0  0  0  0
  -33.8450  -68.7660   -6.2890 C   0  0  0  0  0  0  0  0  0  0  0  0
  -32.7040  -69.5320   -5.6820 C   0  0  0  0  0  0  0  0  0  0  0  0
  -34.5210  -67.9640   -5.4600 N   0  0  0  0  0  0  0  0  0  0  0  0
  -35.6730  -67.2070   -5.9020 C   0  0  0  0  0  0  0  0  0  0  0  0
  -36.8590  -67.4550   -5.0490 C   0  0  0  0  0  0  0  0  0  0  0  0
  -37.1640  -66.8250   -3.8430 C   0  0  0  0  0  0  0  0  0  0  0  0
  -38.3320  -67.3190   -3.4220 N   0  0  0  0  0  0  0  0  0  0  0  0
  -38.8240  -68.2470   -4.2740 N   0  0  0  0  0  0  0  0  0  0  0  0
  -37.9330  -68.3310   -5.2570 C   0  0  0  0  0  0  0  0  0  0  0  0
  3  2  1  0
  2  1  2  0
  4  2  1  0
  5  4  1  0
  6  5  1  0
  6 10  1  0
 10  9  2  0
  9  8  1  0
  8  7  1  0
  7  6  2  0
M  END
$$$$

