Zika_NS5A-x0875_A_1208_1_Zika_NS5A-x0041+A+1112+1
     RDKit          3D

  7  7  0  0  0  0  0  0  0  0999 V2000
  -32.4180  -11.5580  -25.9840 N   0  0  0  0  0  0  0  0  0  0  0  0
  -33.4280  -11.6820  -25.4600 C   0  0  0  0  0  0  0  0  0  0  0  0
  -34.7050  -11.7790  -24.8040 C   0  0  0  0  0  0  0  0  0  0  0  0
  -35.2870  -12.9870  -24.4920 N   0  0  0  0  0  0  0  0  0  0  0  0
  -36.4310  -12.6720  -23.8980 C   0  0  0  0  0  0  0  0  0  0  0  0
  -36.6080  -11.3470  -23.8190 N   0  0  0  0  0  0  0  0  0  0  0  0
  -35.5180  -10.7630  -24.3950 C   0  0  0  0  0  0  0  0  0  0  0  0
  2  1  3  0
  3  2  1  0
  3  7  2  0
  7  6  1  0
  6  5  1  0
  5  4  2  0
  4  3  1  0
M  END
$$$$

