DNV2_NS5A-x1073_A_1608_1_DNV2_NS5A-x1046+A+1701+1
     RDKit          3D

  6  6  0  0  0  0  0  0  0  0999 V2000
  -21.4380  -48.9940  -35.0730 N   0  0  0  0  0  0  0  0  0  0  0  0
  -20.1310  -49.1860  -34.8550 C   0  0  0  0  0  0  0  0  0  0  0  0
  -19.6530  -50.0860  -34.0410 N   0  0  0  0  0  0  0  0  0  0  0  0
  -18.2560  -49.9380  -34.0810 O   0  0  0  0  0  0  0  0  0  0  0  0
  -17.9610  -48.9450  -34.9300 C   0  0  0  0  0  0  0  0  0  0  0  0
  -19.0840  -48.4430  -35.4480 C   0  0  0  0  0  0  0  0  0  0  0  0
  2  1  1  0
  2  6  1  0
  6  5  2  0
  5  4  1  0
  4  3  1  0
  3  2  2  0
M  END
$$$$

