DNV2_NS5A-x0153_A_1801_1_DNV2_NS5A-x0249+A+1707+1
     RDKit          3D

 12 12  0  0  0  0  0  0  0  0999 V2000
   -9.1920  -70.5000  -21.8910 Cl  0  0  0  0  0  0  0  0  0  0  0  0
   -9.1180  -70.8190  -20.1900 C   0  0  0  0  0  0  0  0  0  0  0  0
   -7.8770  -70.8370  -19.5760 C   0  0  0  0  0  0  0  0  0  0  0  0
   -7.7900  -71.0830  -18.2170 C   0  0  0  0  0  0  0  0  0  0  0  0
   -8.9260  -71.3070  -17.4750 C   0  0  0  0  0  0  0  0  0  0  0  0
  -10.1710  -71.2930  -18.0800 C   0  0  0  0  0  0  0  0  0  0  0  0
  -10.2780  -71.0490  -19.4430 C   0  0  0  0  0  0  0  0  0  0  0  0
  -11.9010  -71.0330  -20.1510 S   0  0  0  0  0  0  0  0  0  0  0  0
  -11.7860  -71.5210  -21.4910 O   0  0  0  0  0  0  0  0  0  0  0  0
  -12.4480  -69.7340  -19.9180 O   0  0  0  0  0  0  0  0  0  0  0  0
  -12.8260  -72.0810  -19.3500 N   0  0  0  0  0  0  0  0  0  0  0  0
  -13.9210  -72.7370  -20.0580 C   0  0  0  0  0  0  0  0  0  0  0  0
 12 11  1  0
 11  8  1  0
  9  8  2  0
 10  8  2  0
  8  7  1  0
  7  6  2  0
  6  5  1  0
  5  4  2  0
  4  3  1  0
  3  2  2  0
  7  2  1  0
  2  1  1  0
M  END
$$$$

