Zika_NS5A-x0927_A_1101_1_Zika_NS5A-x0136+A+1016+1
  PyMOL3.1          3D                             0

  5  5  0  0  0  0  0  0  0  0999 V2000
  -25.6920  -59.4350   -1.6380 C   0  0  0  0  0  0  0  0  0  0  0  0
  -25.8930  -59.7150   -0.3590 N   0  0  0  0  0  0  0  0  0  0  0  0
  -25.7450  -58.0620   -1.9030 C   0  0  0  0  0  0  0  0  0  0  0  0
  -26.0460  -57.5030   -0.6990 C   0  0  0  0  0  0  0  0  0  0  0  0
  -26.1330  -58.5140    0.2090 N   0  0  0  0  0  0  0  0  0  0  0  0
  1  2  2  0  0  0  0
  1  3  1  0  0  0  0
  3  4  2  0  0  0  0
  2  5  1  0  0  0  0
  4  5  1  0  0  0  0
M  END
