Zika_NS5A-x0898_A_1013_1_Zika_NS5A-x0136+A+1016+1
  PyMOL3.1          3D                             0

  6  4  0  0  0  0  0  0  0  0999 V2000
  -24.5710  -56.3970   -1.2020 C   0  0  0  0  0  0  0  0  0  0  0  0
  -25.1230  -54.0940   -0.4460 C   0  0  0  0  0  0  0  0  0  0  0  0
  -25.0440  -53.7360    1.0230 C   0  0  0  0  0  0  0  0  0  0  0  0
  -26.2730  -54.1290    1.7280 N   0  0  0  0  0  0  0  0  0  0  0  0
  -26.5870  -55.5550    1.5240 C   0  0  0  0  0  0  0  0  0  0  0  0
  -26.6850  -55.8820    0.0500 C   0  0  0  0  0  0  0  0  0  0  0  0
  2  3  1  0  0  0  0
  3  4  1  0  0  0  0
  4  5  1  0  0  0  0
  5  6  1  0  0  0  0
M  END
