Zika_NS5A-x0186_A_1101_1_Zika_NS5A-x0136+A+1016+1
  PyMOL3.1          3D                             0

  6  6  0  0  1  0  0  0  0  0999 V2000
  -24.8940  -55.7100   -1.2140 N   0  0  0  0  0  0  0  0  0  0  0  0
  -25.6980  -55.9160   -0.0080 C   0  0  0  0  0  0  0  0  0  0  0  0
  -24.2300  -54.3970   -1.2440 C   0  0  0  0  0  0  0  0  0  0  0  0
  -25.2060  -53.2640   -0.9850 C   0  0  0  0  0  0  0  0  0  0  0  0
  -26.0750  -53.4510    0.1830 N   0  0  0  0  0  0  0  0  0  0  0  0
  -26.7350  -54.7870    0.1760 C   0  0  2  0  0  0  0  0  0  0  0  0
  1  2  1  0  0  0  0
  1  3  1  0  0  0  0
  3  4  1  0  0  0  0
  4  5  1  0  0  0  0
  2  6  1  0  0  0  0
  5  6  1  0  0  0  0
M  END
