Zika_NS5A-x0207_A_1201_1_Zika_NS5A-x0136+A+1016+1
  PyMOL3.1          3D                             0

  6  6  0  0  0  0  0  0  0  0999 V2000
  -25.9990  -61.5190   -2.9480 C   0  0  0  0  0  0  0  0  0  0  0  0
  -24.8980  -61.1960   -2.2140 C   0  0  0  0  0  0  0  0  0  0  0  0
  -24.7680  -60.0060   -1.6260 N   0  0  0  0  0  0  0  0  0  0  0  0
  -26.9960  -60.5960   -3.0800 C   0  0  0  0  0  0  0  0  0  0  0  0
  -26.9060  -59.3850   -2.5170 N   0  0  0  0  0  0  0  0  0  0  0  0
  -25.7840  -59.1510   -1.8100 C   0  0  0  0  0  0  0  0  0  0  0  0
  1  2  2  0  0  0  0
  2  3  1  0  0  0  0
  1  4  1  0  0  0  0
  4  5  2  0  0  0  0
  3  6  2  0  0  0  0
  5  6  1  0  0  0  0
M  END
