Zika_NS5A-x0176_A_1102_1_Zika_NS5A-x0411+A+1104+1
     RDKit          3D

 15 16  0  0  0  0  0  0  0  0999 V2000
   -4.2310  -31.9750  -22.9580 N   0  0  0  0  0  0  0  0  0  0  0  0
   -3.7430  -30.6950  -23.4910 C   0  0  1  0  0  0  0  0  0  0  0  0
   -2.9650  -30.8550  -24.7880 C   0  0  0  0  0  0  0  0  0  0  0  0
   -4.8800  -29.7620  -23.7420 C   0  0  0  0  0  0  0  0  0  0  0  0
   -4.6210  -28.6140  -24.3810 O   0  0  0  0  0  0  0  0  0  0  0  0
   -5.8270  -27.8740  -24.3590 N   0  0  0  0  0  0  0  0  0  0  0  0
   -6.6430  -28.6570  -23.7240 C   0  0  0  0  0  0  0  0  0  0  0  0
   -6.1030  -29.8580  -23.3380 N   0  0  0  0  0  0  0  0  0  0  0  0
   -8.0090  -28.2660  -23.2690 C   0  0  0  0  0  0  0  0  0  0  0  0
   -8.1230  -28.4360  -21.7720 C   0  0  0  0  0  0  0  0  0  0  0  0
   -7.1770  -27.8840  -20.9230 C   0  0  0  0  0  0  0  0  0  0  0  0
   -7.2830  -28.0340  -19.5510 C   0  0  0  0  0  0  0  0  0  0  0  0
   -8.3390  -28.7360  -19.0110 C   0  0  0  0  0  0  0  0  0  0  0  0
   -9.2750  -29.3010  -19.8430 C   0  0  0  0  0  0  0  0  0  0  0  0
   -9.1630  -29.1600  -21.2170 C   0  0  0  0  0  0  0  0  0  0  0  0
  2  3  1  6
  2  1  1  0
  4  2  1  0
  4  8  2  0
  8  7  1  0
  9  7  1  0
 10  9  1  0
 10 15  2  0
 15 14  1  0
 14 13  2  0
 13 12  1  0
 12 11  2  0
 11 10  1  0
  7  6  2  0
  6  5  1  0
  5  4  1  0
M  END
$$$$

