Zika_NS5A-x0211_A_1112_1_Zika_NS5A-x0481+A+1201+1
     RDKit          3D

 14 14  0  0  0  0  0  0  0  0999 V2000
  -28.2790  -66.4250  -26.6690 O   0  0  0  0  0  0  0  0  0  0  0  0
  -29.1490  -65.5890  -26.4510 C   0  0  0  0  0  0  0  0  0  0  0  0
  -30.2980  -65.5670  -27.1470 N   0  0  0  0  0  0  0  0  0  0  0  0
  -30.5570  -66.5510  -28.1870 C   0  0  0  0  0  0  0  0  0  0  0  0
  -31.9580  -66.3460  -28.7370 C   0  0  1  0  0  0  0  0  0  0  0  0
  -31.8750  -65.2140  -29.6080 O   0  0  0  0  0  0  0  0  0  0  0  0
  -32.4370  -67.5710  -29.4840 C   0  0  0  0  0  0  0  0  0  0  0  0
  -29.0500  -64.6150  -25.4960 N   0  0  0  0  0  0  0  0  0  0  0  0
  -27.9660  -64.3630  -24.6230 C   0  0  0  0  0  0  0  0  0  0  0  0
  -27.1080  -65.3660  -24.1780 C   0  0  0  0  0  0  0  0  0  0  0  0
  -26.0740  -65.0560  -23.3070 C   0  0  0  0  0  0  0  0  0  0  0  0
  -25.8900  -63.7600  -22.8730 C   0  0  0  0  0  0  0  0  0  0  0  0
  -26.7290  -62.7590  -23.3190 C   0  0  0  0  0  0  0  0  0  0  0  0
  -27.7640  -63.0520  -24.1920 C   0  0  0  0  0  0  0  0  0  0  0  0
  5  7  1  6
  6  5  1  0
  5  4  1  0
  4  3  1  0
  3  2  1  0
  2  1  2  0
  8  2  1  0
  9  8  1  0
  9 14  2  0
 14 13  1  0
 13 12  2  0
 12 11  1  0
 11 10  2  0
 10  9  1  0
M  END
$$$$

