DNV2_NS5A-x0471_A_1608_1_DNV2_NS5A-x0471+A+1608+1
     RDKit          3D

 12 14  0  0  0  0  0  0  0  0999 V2000
  -27.1920  -26.1470  -39.5350 C   0  0  0  0  0  0  0  0  0  0  0  0
  -26.4550  -25.2570  -40.2130 N   0  0  0  0  0  0  0  0  0  0  0  0
  -25.9540  -25.6900  -41.3700 C   0  0  0  0  0  0  0  0  0  0  0  0
  -26.1090  -26.8940  -41.9250 N   0  0  0  0  0  0  0  0  0  0  0  0
  -27.4510  -27.4280  -40.0010 C   0  0  0  0  0  0  0  0  0  0  0  0
  -28.3320  -28.4090  -39.2520 C   0  0  1  0  0  0  0  0  0  0  0  0
  -29.7040  -28.3970  -39.9490 C   0  0  0  0  0  0  0  0  0  0  0  0
  -26.8710  -27.7500  -41.2310 C   0  0  0  0  0  0  0  0  0  0  0  0
  -27.1170  -29.1110  -41.8320 C   0  0  0  0  0  0  0  0  0  0  0  0
  -28.0940  -29.9280  -40.9990 C   0  0  1  0  0  0  0  0  0  0  0  0
  -27.7660  -29.7220  -39.5790 N   0  0  0  0  0  0  0  0  0  0  0  0
  -29.5320  -29.3950  -41.1160 C   0  0  0  0  0  0  0  0  0  0  0  0
 12  7  1  0
  6  7  1  6
  6 11  1  0
 11 10  1  0
 10 12  1  1
 10  9  1  0
  9  8  1  0
  8  4  1  0
  4  3  2  0
  3  2  1  0
  2  1  2  0
  5  1  1  0
  6  5  1  0
  8  5  2  0
M  END
$$$$

