Zika_NS5A-x0112_A_1201_1_Zika_NS5A-x0112+A+1201+1
     RDKit          3D

 11 11  0  0  0  0  0  0  0  0999 V2000
  -27.8540  -76.1190  -11.9680 O   0  0  0  0  0  0  0  0  0  0  0  0
  -27.7190  -75.1770  -12.7620 C   0  0  0  0  0  0  0  0  0  0  0  0
  -27.7700  -75.2850  -14.1970 C   0  0  0  0  0  0  0  0  0  0  0  0
  -27.6380  -74.1910  -14.9730 C   0  0  0  0  0  0  0  0  0  0  0  0
  -27.5200  -73.9130  -12.2720 N   0  0  0  0  0  0  0  0  0  0  0  0
  -27.3790  -72.8030  -13.0440 C   0  0  0  0  0  0  0  0  0  0  0  0
  -27.4460  -72.9060  -14.3760 C   0  0  0  0  0  0  0  0  0  0  0  0
  -27.3990  -71.8520  -15.2330 O   0  0  0  0  0  0  0  0  0  0  0  0
  -26.1630  -71.3270  -15.4530 C   0  0  0  0  0  0  0  0  0  0  0  0
  -25.5890  -70.9110  -14.3060 F   0  0  0  0  0  0  0  0  0  0  0  0
  -25.4000  -72.3390  -15.8920 F   0  0  0  0  0  0  0  0  0  0  0  0
 10  9  1  0
 11  9  1  0
  9  8  1  0
  8  7  1  0
  7  4  1  0
  4  3  2  0
  3  2  1  0
  2  1  2  0
  5  2  1  0
  6  5  1  0
  7  6  2  0
M  END
$$$$

