Zika_NS5A-x0653_A_1101_1_Zika_NS5A-x0351+A+1112+1
     RDKit          3D

 13 14  0  0  0  0  0  0  0  0999 V2000
  -24.1490  -31.8770  -18.9320 O   0  0  0  0  0  0  0  0  0  0  0  0
  -25.5230  -31.9770  -19.3000 C   0  0  0  0  0  0  0  0  0  0  0  0
  -25.8440  -30.9390  -20.3670 C   0  0  1  0  0  0  0  0  0  0  0  0
  -26.3600  -31.5780  -21.6530 C   0  0  0  0  0  0  0  0  0  0  0  0
  -26.7580  -30.3950  -22.4550 C   0  0  0  0  0  0  0  0  0  0  0  0
  -27.5210  -29.5230  -21.4840 C   0  0  0  0  0  0  0  0  0  0  0  0
  -26.9070  -29.8150  -20.0970 C   0  0  1  0  0  0  0  0  0  0  0  0
  -27.9250  -30.2220  -19.0740 C   0  0  0  0  0  0  0  0  0  0  0  0
  -29.0920  -30.9680  -19.2680 C   0  0  0  0  0  0  0  0  0  0  0  0
  -29.7210  -31.2050  -18.1370 N   0  0  0  0  0  0  0  0  0  0  0  0
  -28.9580  -30.6050  -17.1970 N   0  0  0  0  0  0  0  0  0  0  0  0
  -29.3110  -30.7140  -15.7880 C   0  0  0  0  0  0  0  0  0  0  0  0
  -27.8870  -29.9990  -17.7240 C   0  0  0  0  0  0  0  0  0  0  0  0
  2  1  1  0
  3  2  1  1
  3  7  1  0
  7  8  1  1
  8 13  2  0
 13 11  1  0
 12 11  1  0
 11 10  1  0
 10  9  2  0
  9  8  1  0
  7  6  1  0
  6  5  1  0
  5  4  1  0
  4  3  1  0
M  END
$$$$

