5i3q_A_1003_1_5i3p+A+1003+1
     RDKit          3D

 34 37  0  0  0  0  0  0  0  0999 V2000
  -15.4510  -43.8150  -21.4860 C   0  0  0  0  0  0  0  0  0  0  0  0
  -14.5060  -43.1070  -20.7500 C   0  0  0  0  0  0  0  0  0  0  0  0
  -14.5350  -43.0860  -19.3580 C   0  0  0  0  0  0  0  0  0  0  0  0
  -22.2920  -46.1700  -26.7340 O   0  0  0  0  0  0  0  0  0  0  0  0
  -16.6900  -43.3130  -16.6750 O   0  0  0  0  0  0  0  0  0  0  0  0
  -16.0670  -44.7310  -14.4590 O   0  0  0  0  0  0  0  0  0  0  0  0
  -19.0000  -46.3750  -23.2190 C   0  0  0  0  0  0  0  0  0  0  0  0
  -19.7790  -46.6010  -24.3820 C   0  0  0  0  0  0  0  0  0  0  0  0
  -20.3740  -46.6640  -25.4130 C   0  0  0  0  0  0  0  0  0  0  0  0
  -21.0600  -46.8430  -26.6950 C   0  0  0  0  0  0  0  0  0  0  0  0
  -15.6940  -43.7870  -17.2240 C   0  0  0  0  0  0  0  0  0  0  0  0
  -14.1580  -42.9560  -14.3340 C   0  0  0  0  0  0  0  0  0  0  0  0
  -15.0370  -42.1960  -13.6110 C   0  0  0  0  0  0  0  0  0  0  0  0
  -14.6800  -40.9230  -13.1920 C   0  0  0  0  0  0  0  0  0  0  0  0
  -13.4920  -40.3730  -13.5760 C   0  0  0  0  0  0  0  0  0  0  0  0
  -12.5550  -41.1220  -14.3370 C   0  0  0  0  0  0  0  0  0  0  0  0
  -11.3020  -40.6230  -14.7710 C   0  0  0  0  0  0  0  0  0  0  0  0
  -10.4700  -41.4120  -15.5120 C   0  0  0  0  0  0  0  0  0  0  0  0
  -10.9050  -42.6810  -15.8820 C   0  0  0  0  0  0  0  0  0  0  0  0
  -12.9010  -42.4330  -14.7560 C   0  0  0  0  0  0  0  0  0  0  0  0
  -13.7240  -45.5310  -14.5520 O   0  0  0  0  0  0  0  0  0  0  0  0
  -14.7120  -44.5500  -14.8810 S   0  0  0  0  0  0  0  0  0  0  0  0
  -12.0620  -43.2120  -15.5060 N   0  0  0  0  0  0  0  0  0  0  0  0
  -14.6780  -44.3800  -16.4980 N   0  0  0  0  0  0  0  0  0  0  0  0
  -15.5470  -43.8150  -18.7070 C   0  0  0  0  0  0  0  0  0  0  0  0
  -13.4940  -42.2820  -18.6180 C   0  0  0  0  0  0  0  0  0  0  0  0
  -16.4700  -44.5490  -19.4530 C   0  0  0  0  0  0  0  0  0  0  0  0
  -16.4420  -44.5680  -20.8410 C   0  0  0  0  0  0  0  0  0  0  0  0
  -15.4450  -43.8890  -22.8530 O   0  0  0  0  0  0  0  0  0  0  0  0
  -14.5160  -43.0670  -23.5740 C   0  0  0  0  0  0  0  0  0  0  0  0
  -17.4240  -45.4050  -21.5610 C   0  0  0  0  0  0  0  0  0  0  0  0
  -18.0460  -44.9420  -23.1100 S   0  0  0  0  0  0  0  0  0  0  0  0
  -18.8280  -47.1670  -22.1260 C   0  0  0  0  0  0  0  0  0  0  0  0
  -17.9540  -46.6080  -21.1720 C   0  0  0  0  0  0  0  0  0  0  0  0
  4 10  1  0
 10  9  1  0
  9  8  3  0
  8  7  1  0
  7 33  2  0
  7 32  1  0
 33 34  1  0
 34 31  2  0
 32 31  1  0
 31 28  1  0
 28 27  1  0
 28  1  2  0
 29  1  1  0
 29 30  1  0
 27 25  2  0
  1  2  1  0
 25 11  1  0
 25  3  1  0
  2  3  2  0
  5 11  2  0
 11 24  1  0
  3 26  1  0
  6 22  2  0
 24 22  1  0
 22 21  2  0
 22 12  1  0
 12 13  2  0
 12 20  1  0
 13 14  1  0
 23 20  2  0
 23 19  1  0
 20 16  1  0
 14 15  2  0
 19 18  2  0
 16 15  1  0
 16 17  2  0
 18 17  1  0
M  END
$$$$

