Zika_NS5A-x0999_A_1101_1_Zika_NS5A-x0041+A+1112+1
     RDKit          3D

 13 14  0  0  0  0  0  0  0  0999 V2000
  -31.8500  -12.2020  -26.7690 O   0  0  0  0  0  0  0  0  0  0  0  0
  -32.6280  -13.1560  -26.9090 C   0  0  0  0  0  0  0  0  0  0  0  0
  -32.4970  -14.0500  -27.8820 N   0  0  0  0  0  0  0  0  0  0  0  0
  -33.7690  -13.3330  -25.9820 C   0  0  0  0  0  0  0  0  0  0  0  0
  -34.3760  -14.5100  -25.8390 N   0  0  0  0  0  0  0  0  0  0  0  0
  -34.4090  -12.3280  -25.1810 C   0  0  0  0  0  0  0  0  0  0  0  0
  -35.4680  -12.9930  -24.5510 C   0  0  0  0  0  0  0  0  0  0  0  0
  -35.4150  -14.2920  -24.9650 N   0  0  0  0  0  0  0  0  0  0  0  0
  -36.2960  -15.3890  -24.5970 C   0  0  0  0  0  0  0  0  0  0  0  0
  -36.3410  -12.3350  -23.6940 C   0  0  0  0  0  0  0  0  0  0  0  0
  -36.1370  -10.9820  -23.4650 C   0  0  0  0  0  0  0  0  0  0  0  0
  -35.0880  -10.3090  -24.0740 C   0  0  0  0  0  0  0  0  0  0  0  0
  -34.2220  -10.9700  -24.9320 C   0  0  0  0  0  0  0  0  0  0  0  0
  9  8  1  0
  8  5  1  0
  5  4  2  0
  4  2  1  0
  2  1  2  0
  3  2  1  0
  6  4  1  0
  6 13  2  0
 13 12  1  0
 12 11  2  0
 11 10  1  0
 10  7  2  0
  8  7  1  0
  7  6  1  0
M  END
$$$$

