Zika_NS5A-x0858_A_1101_1_Zika_NS5A-x0498+A+1101+1
     RDKit          3D

  6  5  0  0  0  0  0  0  0  0999 V2000
  -30.0230   -9.4470   -6.3460 O   0  0  0  0  0  0  0  0  0  0  0  0
  -30.9540  -10.1710   -6.7100 C   0  0  0  0  0  0  0  0  0  0  0  0
  -31.8010   -9.8300   -7.6570 N   0  0  0  0  0  0  0  0  0  0  0  0
  -31.5270   -8.6990   -8.4130 O   0  0  0  0  0  0  0  0  0  0  0  0
  -31.2190  -11.5240   -6.1190 C   0  0  0  0  0  0  0  0  0  0  0  0
  -32.3080  -12.2590   -6.7990 C   0  0  0  0  0  0  0  0  0  0  0  0
  6  5  1  0
  5  2  1  0
  2  1  2  0
  3  2  1  0
  4  3  1  0
M  END
$$$$

