DNV2_NS5A-x0825_A_1801_1_DNV2_NS5A-x0825+A+1801+1
     RDKit          3D

 13 14  0  0  0  0  0  0  0  0999 V2000
   -2.5410  -16.7500  -16.3690 O   0  0  0  0  0  0  0  0  0  0  0  0
   -2.7660  -15.8050  -17.4140 S   0  0  0  0  0  0  0  0  0  0  0  0
   -1.9600  -15.8200  -18.5910 O   0  0  0  0  0  0  0  0  0  0  0  0
   -4.2830  -15.9070  -17.8500 N   0  0  0  0  0  0  0  0  0  0  0  0
   -2.6450  -14.2090  -16.8370 C   0  0  0  0  0  0  0  0  0  0  0  0
   -3.4210  -13.5010  -15.9560 N   0  0  0  0  0  0  0  0  0  0  0  0
   -2.8790  -12.2240  -15.8330 C   0  0  0  0  0  0  0  0  0  0  0  0
   -1.7970  -12.0770  -16.5950 N   0  0  0  0  0  0  0  0  0  0  0  0
   -1.6340  -13.2840  -17.2180 C   0  0  0  0  0  0  0  0  0  0  0  0
   -4.5340  -13.9760  -15.3090 N   0  0  0  0  0  0  0  0  0  0  0  0
   -5.1130  -13.0550  -14.4760 C   0  0  0  0  0  0  0  0  0  0  0  0
   -4.6450  -11.7440  -14.2770 C   0  0  0  0  0  0  0  0  0  0  0  0
   -3.5350  -11.3280  -14.9540 C   0  0  0  0  0  0  0  0  0  0  0  0
  4  2  1  0
  3  2  2  0
  2  1  2  0
  5  2  1  0
  5  9  2  0
  9  8  1  0
  8  7  2  0
  7 13  1  0
 13 12  2  0
 12 11  1  0
 11 10  2  0
 10  6  1  0
  6  5  1  0
  7  6  1  0
M  END
$$$$

