Zika_NS5A-x0351_A_1112_1_Zika_NS5A-x0351+A+1112+1
     RDKit          3D

 18 19  0  0  0  0  0  0  0  0999 V2000
  -25.9990  -31.0270  -23.1110 O   0  0  0  0  0  0  0  0  0  0  0  0
  -25.3140  -31.3850  -22.1670 C   0  0  0  0  0  0  0  0  0  0  0  0
  -24.1240  -32.0120  -22.3580 N   0  0  0  0  0  0  0  0  0  0  0  0
  -23.2160  -32.3130  -21.2480 C   0  0  0  0  0  0  0  0  0  0  0  0
  -21.8070  -32.4330  -21.7640 C   0  0  0  0  0  0  0  0  0  0  0  0
  -21.7080  -33.4060  -22.7980 O   0  0  0  0  0  0  0  0  0  0  0  0
  -22.5390  -33.0350  -23.8880 C   0  0  0  0  0  0  0  0  0  0  0  0
  -23.9830  -32.9480  -23.4770 C   0  0  0  0  0  0  0  0  0  0  0  0
  -25.6800  -31.1850  -20.8780 N   0  0  0  0  0  0  0  0  0  0  0  0
  -26.8780  -30.5610  -20.4540 C   0  0  0  0  0  0  0  0  0  0  0  0
  -27.7480  -29.9970  -21.3780 C   0  0  0  0  0  0  0  0  0  0  0  0
  -28.9340  -29.4260  -20.9520 C   0  0  0  0  0  0  0  0  0  0  0  0
  -29.2560  -29.4110  -19.6070 C   0  0  0  0  0  0  0  0  0  0  0  0
  -27.1990  -30.5380  -19.1020 C   0  0  0  0  0  0  0  0  0  0  0  0
  -28.3920  -29.9640  -18.6730 C   0  0  0  0  0  0  0  0  0  0  0  0
  -28.7280  -29.9520  -17.2240 C   0  0  0  0  0  0  0  0  0  0  0  0
  -29.8350  -30.2940  -16.8460 O   0  0  0  0  0  0  0  0  0  0  0  0
  -27.6880  -29.5300  -16.2380 C   0  0  0  0  0  0  0  0  0  0  0  0
 18 16  1  0
 17 16  2  0
 16 15  1  0
 15 13  2  0
 13 12  1  0
 12 11  2  0
 11 10  1  0
 10  9  1  0
  9  2  1  0
  2  1  2  0
  3  2  1  0
  3  8  1  0
  8  7  1  0
  7  6  1  0
  6  5  1  0
  5  4  1  0
  4  3  1  0
 14 10  2  0
 15 14  1  0
M  END
$$$$

