Zika_NS5A-x0052_A_1112_1_Zika_NS5A-x0103+A+1112+1
     RDKit          3D

  9  9  0  0  0  0  0  0  0  0999 V2000
  -13.3610  -44.9210  -19.5190 O   0  0  0  0  0  0  0  0  0  0  0  0
  -12.8310  -43.9430  -18.6400 C   0  0  0  0  0  0  0  0  0  0  0  0
  -12.6710  -44.5370  -17.2640 C   0  0  0  0  0  0  0  0  0  0  0  0
  -13.9340  -44.6010  -16.5190 N   0  0  0  0  0  0  0  0  0  0  0  0
  -14.3430  -45.9990  -16.3670 C   0  0  0  0  0  0  0  0  0  0  0  0
  -15.5270  -46.1080  -15.4510 C   0  0  0  0  0  0  0  0  0  0  0  0
  -15.2540  -45.5610  -14.1740 O   0  0  0  0  0  0  0  0  0  0  0  0
  -14.9660  -44.1820  -14.3290 C   0  0  0  0  0  0  0  0  0  0  0  0
  -13.7590  -43.9640  -15.2030 C   0  0  0  0  0  0  0  0  0  0  0  0
  2  1  1  0
  3  2  1  0
  4  3  1  0
  4  9  1  0
  9  8  1  0
  8  7  1  0
  7  6  1  0
  6  5  1  0
  5  4  1  0
M  END
$$$$

