Zika_NS5A-x0581_A_1112_1_Zika_NS5A-x0041+A+1112+1
     RDKit          3D

 14 15  0  0  0  0  0  0  0  0999 V2000
  -35.4630  -16.9620  -27.8240 O   0  0  0  0  0  0  0  0  0  0  0  0
  -34.6820  -16.0260  -27.8780 C   0  0  0  0  0  0  0  0  0  0  0  0
  -34.2260  -15.4700  -29.1920 C   0  0  0  0  0  0  0  0  0  0  0  0
  -34.1900  -15.4720  -26.7460 N   0  0  0  0  0  0  0  0  0  0  0  0
  -32.8530  -14.8660  -26.6480 C   0  0  0  0  0  0  0  0  0  0  0  0
  -32.8790  -13.3590  -26.5770 C   0  0  0  0  0  0  0  0  0  0  0  0
  -32.1780  -12.6170  -27.5250 C   0  0  0  0  0  0  0  0  0  0  0  0
  -32.1900  -11.2310  -27.4900 C   0  0  0  0  0  0  0  0  0  0  0  0
  -32.8940  -10.5670  -26.5080 C   0  0  0  0  0  0  0  0  0  0  0  0
  -33.5910  -11.2780  -25.5460 C   0  0  0  0  0  0  0  0  0  0  0  0
  -33.5790  -12.6640  -25.5880 C   0  0  0  0  0  0  0  0  0  0  0  0
  -34.2930  -13.3170  -24.6050 O   0  0  0  0  0  0  0  0  0  0  0  0
  -35.3920  -14.1400  -25.0420 C   0  0  0  0  0  0  0  0  0  0  0  0
  -34.9430  -15.5040  -25.4850 C   0  0  0  0  0  0  0  0  0  0  0  0
  3  2  1  0
  2  1  2  0
  4  2  1  0
  4 14  1  0
 14 13  1  0
 13 12  1  0
 12 11  1  0
 11 10  2  0
 10  9  1  0
  9  8  2  0
  8  7  1  0
  7  6  2  0
 11  6  1  0
  6  5  1  0
  5  4  1  0
M  END
$$$$

