DNV2_NS5A-x0428_A_1608_1_DNV2_NS5A-x0428+A+1608+1
     RDKit          3D

 11 11  0  0  0  0  0  0  0  0999 V2000
    5.2610  -43.0160  -25.1930 O   0  0  0  0  0  0  0  0  0  0  0  0
    5.0020  -42.2730  -24.2510 C   0  0  0  0  0  0  0  0  0  0  0  0
    4.4260  -42.7930  -22.9670 C   0  0  0  0  0  0  0  0  0  0  0  0
    5.2300  -40.9620  -24.3090 N   0  0  0  0  0  0  0  0  0  0  0  0
    4.7210  -39.9770  -23.3690 C   0  0  0  0  0  0  0  0  0  0  0  0
    5.7250  -38.8660  -23.0830 C   0  0  0  0  0  0  0  0  0  0  0  0
    5.9330  -38.1130  -24.2870 O   0  0  0  0  0  0  0  0  0  0  0  0
    5.2330  -37.9200  -21.9880 C   0  0  0  0  0  0  0  0  0  0  0  0
    5.6910  -38.5600  -20.6920 C   0  0  0  0  0  0  0  0  0  0  0  0
    6.9080  -39.4020  -21.0320 C   0  0  0  0  0  0  0  0  0  0  0  0
    7.0710  -39.3670  -22.5460 C   0  0  0  0  0  0  0  0  0  0  0  0
  3  2  1  0
  2  1  2  0
  4  2  1  0
  5  4  1  0
  6  5  1  0
  7  6  1  0
  6 11  1  0
 11 10  1  0
 10  9  1  0
  9  8  1  0
  8  6  1  0
M  END
$$$$

