DNV2_NS5A-x0963_A_1801_1_DNV2_NS5A-x0479+A+1707+1
     RDKit          3D

  6  6  0  0  0  0  0  0  0  0999 V2000
  -21.6130  -24.4450    0.2410 I   0  0  0  0  0  0  0  0  0  0  0  0
  -19.8560  -24.7810   -0.8120 C   0  0  0  0  0  0  0  0  0  0  0  0
  -19.4600  -25.9450   -1.4400 C   0  0  0  0  0  0  0  0  0  0  0  0
  -18.2940  -25.7940   -2.0490 N   0  0  0  0  0  0  0  0  0  0  0  0
  -17.9350  -24.5200   -1.7920 N   0  0  0  0  0  0  0  0  0  0  0  0
  -18.8440  -23.8770   -1.0570 C   0  0  0  0  0  0  0  0  0  0  0  0
  2  1  1  0
  2  6  2  0
  6  5  1  0
  5  4  1  0
  4  3  2  0
  3  2  1  0
M  END
$$$$

