Zika_NS5A-x0307_A_1101_1_Zika_NS5A-x0111+A+1112+1
     RDKit          3D

 13 14  0  0  0  0  0  0  0  0999 V2000
   -5.4600  -36.3680  -43.9230 N   0  0  0  0  0  0  0  0  0  0  0  0
   -5.6780  -37.7060  -43.7630 C   0  0  0  0  0  0  0  0  0  0  0  0
   -6.2750  -38.1920  -42.5980 C   0  0  0  0  0  0  0  0  0  0  0  0
   -6.5150  -39.5500  -42.4420 C   0  0  0  0  0  0  0  0  0  0  0  0
   -6.1700  -40.4390  -43.4450 C   0  0  0  0  0  0  0  0  0  0  0  0
   -5.3100  -38.6100  -44.7630 C   0  0  0  0  0  0  0  0  0  0  0  0
   -5.5600  -39.9760  -44.6160 C   0  0  0  0  0  0  0  0  0  0  0  0
   -5.2120  -40.9170  -45.7100 C   0  0  0  0  0  0  0  0  0  0  0  0
   -4.1390  -40.7190  -46.5620 N   0  0  0  0  0  0  0  0  0  0  0  0
   -5.8790  -42.0170  -45.9260 N   0  0  0  0  0  0  0  0  0  0  0  0
   -5.1760  -42.6120  -47.0110 O   0  0  0  0  0  0  0  0  0  0  0  0
   -4.1640  -41.7810  -47.3030 C   0  0  0  0  0  0  0  0  0  0  0  0
   -3.1970  -42.2190  -48.3310 C   0  0  0  0  0  0  0  0  0  0  0  0
 13 12  1  0
 12  9  2  0
  9  8  1  0
 10  8  2  0
 11 10  1  0
 12 11  1  0
  8  7  1  0
  7  5  1  0
  5  4  2  0
  4  3  1  0
  3  2  2  0
  2  1  1  0
  6  2  1  0
  7  6  2  0
M  END
$$$$

