Zika_NS5A-x0252_A_1101_1_Zika_NS5A-x0252+A+1101+1
     RDKit          3D

 15 16  0  0  0  0  0  0  0  0999 V2000
  -18.9330  -19.4990  -41.1150 O   0  0  0  0  0  0  0  0  0  0  0  0
  -20.0560  -18.7190  -41.5190 C   0  0  1  0  0  0  0  0  0  0  0  0
  -19.5240  -17.5360  -42.2810 C   0  0  0  0  0  0  0  0  0  0  0  0
  -20.8900  -19.6240  -42.4570 C   0  0  0  0  0  0  0  0  0  0  0  0
  -22.3160  -19.3040  -42.3660 N   0  0  0  0  0  0  0  0  0  0  0  0
  -22.9840  -19.2120  -43.6590 C   0  0  0  0  0  0  0  0  0  0  0  0
  -24.0480  -20.2680  -43.8230 C   0  0  0  0  0  0  0  0  0  0  0  0
  -24.0820  -21.3650  -42.9680 C   0  0  0  0  0  0  0  0  0  0  0  0
  -25.0630  -22.3090  -43.1460 C   0  0  0  0  0  0  0  0  0  0  0  0
  -25.3120  -23.4340  -42.3980 O   0  0  0  0  0  0  0  0  0  0  0  0
  -26.3150  -24.1480  -43.1220 C   0  0  0  0  0  0  0  0  0  0  0  0
  -26.8410  -23.2760  -44.1210 O   0  0  0  0  0  0  0  0  0  0  0  0
  -25.9870  -22.1960  -44.1470 C   0  0  0  0  0  0  0  0  0  0  0  0
  -25.9810  -21.1230  -45.0100 C   0  0  0  0  0  0  0  0  0  0  0  0
  -25.0030  -20.1610  -44.8310 C   0  0  0  0  0  0  0  0  0  0  0  0
  2  3  1  6
  2  1  1  0
  4  2  1  0
  5  4  1  0
  6  5  1  0
  7  6  1  0
  7 15  2  0
 15 14  1  0
 14 13  2  0
 13 12  1  0
 12 11  1  0
 11 10  1  0
 10  9  1  0
 13  9  1  0
  9  8  2  0
  8  7  1  0
M  END
$$$$

