Zika_NS5A-x0581_A_1201_1_Zika_NS5A-x0351+A+1112+1
     RDKit          3D

 14 15  0  0  0  0  0  0  0  0999 V2000
  -26.7400  -32.6010  -20.4590 O   0  0  0  0  0  0  0  0  0  0  0  0
  -26.0810  -31.5830  -20.3280 C   0  0  0  0  0  0  0  0  0  0  0  0
  -24.5830  -31.6270  -20.2760 C   0  0  0  0  0  0  0  0  0  0  0  0
  -26.6890  -30.3820  -20.1940 N   0  0  0  0  0  0  0  0  0  0  0  0
  -26.5690  -29.6140  -18.9480 C   0  0  0  0  0  0  0  0  0  0  0  0
  -27.6510  -29.9690  -17.9560 C   0  0  0  0  0  0  0  0  0  0  0  0
  -27.3570  -29.9190  -16.5950 C   0  0  0  0  0  0  0  0  0  0  0  0
  -28.3260  -30.1930  -15.6470 C   0  0  0  0  0  0  0  0  0  0  0  0
  -29.6050  -30.5180  -16.0390 C   0  0  0  0  0  0  0  0  0  0  0  0
  -29.9270  -30.5860  -17.3840 C   0  0  0  0  0  0  0  0  0  0  0  0
  -28.9520  -30.3250  -18.3320 C   0  0  0  0  0  0  0  0  0  0  0  0
  -29.3330  -30.5220  -19.6470 O   0  0  0  0  0  0  0  0  0  0  0  0
  -28.9520  -29.5270  -20.6230 C   0  0  0  0  0  0  0  0  0  0  0  0
  -27.5780  -29.7750  -21.1880 C   0  0  0  0  0  0  0  0  0  0  0  0
  3  2  1  0
  2  1  2  0
  4  2  1  0
  4 14  1  0
 14 13  1  0
 13 12  1  0
 12 11  1  0
 11 10  2  0
 10  9  1  0
  9  8  2  0
  8  7  1  0
  7  6  2  0
 11  6  1  0
  6  5  1  0
  5  4  1  0
M  END
$$$$

