DNV2_NS5A-x0264_A_1801_1_DNV2_NS5A-x0254+A+1701+1
     RDKit          3D

 15 15  0  0  0  0  0  0  0  0999 V2000
  -23.1640  -45.9380  -18.0490 O   0  0  0  0  0  0  0  0  0  0  0  0
  -22.2460  -46.0170  -17.2360 C   0  0  0  0  0  0  0  0  0  0  0  0
  -22.2040  -47.1360  -16.1890 C   0  0  0  0  0  0  0  0  0  0  0  0
  -23.2590  -46.8890  -15.1120 C   0  0  0  0  0  0  0  0  0  0  0  0
  -22.3910  -48.4810  -16.8760 C   0  0  0  0  0  0  0  0  0  0  0  0
  -21.2220  -45.1550  -17.2120 N   0  0  0  0  0  0  0  0  0  0  0  0
  -21.0190  -44.1810  -18.2700 C   0  0  1  0  0  0  0  0  0  0  0  0
  -20.4710  -42.8780  -17.6970 C   0  0  0  0  0  0  0  0  0  0  0  0
  -20.1240  -44.7580  -19.3280 C   0  0  0  0  0  0  0  0  0  0  0  0
  -19.8410  -44.3300  -20.5900 C   0  0  0  0  0  0  0  0  0  0  0  0
  -20.3800  -43.1060  -21.2510 C   0  0  0  0  0  0  0  0  0  0  0  0
  -18.9590  -45.1180  -21.2970 N   0  0  0  0  0  0  0  0  0  0  0  0
  -18.5660  -46.1410  -20.5930 C   0  0  0  0  0  0  0  0  0  0  0  0
  -19.2480  -46.2240  -19.0020 S   0  0  0  0  0  0  0  0  0  0  0  0
  -17.6070  -47.1680  -21.0840 C   0  0  0  0  0  0  0  0  0  0  0  0
  5  3  1  0
  4  3  1  0
  3  2  1  0
  2  1  2  0
  6  2  1  0
  7  6  1  0
  7  8  1  1
  9  7  1  0
  9 14  1  0
 14 13  1  0
 15 13  1  0
 13 12  2  0
 12 10  1  0
 10  9  2  0
 11 10  1  0
M  END
$$$$

