DNV2_NS5A-x0571_A_1801_1_DNV2_NS5A-x0210+A+1608+1
     RDKit          3D

 15 17  0  0  0  0  0  0  0  0999 V2000
  -29.2840  -45.8110   -9.5720 C   0  0  0  0  0  0  0  0  0  0  0  0
  -28.1270  -44.9890   -9.2220 N   0  0  0  0  0  0  0  0  0  0  0  0
  -27.2140  -45.1730   -8.2190 C   0  0  0  0  0  0  0  0  0  0  0  0
  -26.2840  -44.2250   -8.2310 N   0  0  0  0  0  0  0  0  0  0  0  0
  -26.6230  -43.4050   -9.2780 C   0  0  0  0  0  0  0  0  0  0  0  0
  -27.7430  -43.8500   -9.8930 C   0  0  0  0  0  0  0  0  0  0  0  0
  -27.2640  -46.2680   -7.2650 C   0  0  0  0  0  0  0  0  0  0  0  0
  -26.3390  -46.4390   -6.2640 N   0  0  0  0  0  0  0  0  0  0  0  0
  -26.7420  -47.5220   -5.6900 C   0  0  0  0  0  0  0  0  0  0  0  0
  -27.8520  -48.0400   -6.2430 O   0  0  0  0  0  0  0  0  0  0  0  0
  -28.1990  -47.1750   -7.3160 N   0  0  0  0  0  0  0  0  0  0  0  0
  -26.1290  -48.2460   -4.5560 C   0  0  0  0  0  0  0  0  0  0  0  0
  -25.2240  -47.3880   -3.6640 C   0  0  0  0  0  0  0  0  0  0  0  0
  -24.0370  -48.3140   -4.0250 C   0  0  0  0  0  0  0  0  0  0  0  0
  -24.9490  -49.1290   -4.9750 C   0  0  0  0  0  0  0  0  0  0  0  0
  2  1  1  0
  2  6  1  0
  6  5  2  0
  5  4  1  0
  4  3  2  0
  3  2  1  0
  7  3  1  0
  7 11  2  0
 11 10  1  0
 10  9  1  0
  9  8  2  0
  8  7  1  0
 12  9  1  0
 12 15  1  0
 15 14  1  0
 14 13  1  0
 13 12  1  0
M  END
$$$$

