Zika_NS5A-x0187_A_1013_1_Zika_NS5A-x0283+A+1101+1
     RDKit          3D

 15 16  0  0  0  0  0  0  0  0999 V2000
  -34.5450  -40.5930  -15.3240 O   0  0  0  0  0  0  0  0  0  0  0  0
  -34.4260  -41.8060  -15.3080 C   0  0  0  0  0  0  0  0  0  0  0  0
  -34.6590  -42.6180  -16.5620 C   0  0  2  0  0  0  0  0  0  0  0  0
  -33.3450  -43.1400  -17.1200 C   0  0  0  0  0  0  0  0  0  0  0  0
  -32.7530  -41.9470  -17.7750 N   0  0  0  0  0  0  0  0  0  0  0  0
  -33.8820  -41.2320  -18.4270 C   0  0  0  0  0  0  0  0  0  0  0  0
  -35.1800  -41.7670  -17.7380 C   0  0  0  0  0  0  0  0  0  0  0  0
  -34.0710  -42.4600  -14.1710 N   0  0  0  0  0  0  0  0  0  0  0  0
  -34.7970  -43.6710  -13.7960 C   0  0  0  0  0  0  0  0  0  0  0  0
  -33.0220  -42.0380  -13.2860 C   0  0  0  0  0  0  0  0  0  0  0  0
  -31.9370  -42.8710  -13.0430 C   0  0  0  0  0  0  0  0  0  0  0  0
  -30.9550  -42.4770  -12.1490 C   0  0  0  0  0  0  0  0  0  0  0  0
  -31.0500  -41.2630  -11.5000 C   0  0  0  0  0  0  0  0  0  0  0  0
  -32.1250  -40.4380  -11.7430 C   0  0  0  0  0  0  0  0  0  0  0  0
  -33.1110  -40.8150  -12.6390 C   0  0  0  0  0  0  0  0  0  0  0  0
  9  8  1  0
  8  2  1  0
  2  1  2  0
  3  2  1  1
  3  7  1  0
  7  6  1  0
  6  5  1  0
  5  4  1  0
  4  3  1  0
 10  8  1  0
 10 15  2  0
 15 14  1  0
 14 13  2  0
 13 12  1  0
 12 11  2  0
 11 10  1  0
M  END
$$$$

