DNV2_NS5A-x0135_A_1608_1_DNV2_NS5A-x0135+A+1608+1
     RDKit          3D

 15 16  0  0  0  0  0  0  0  0999 V2000
  -34.4700  -68.9260   -8.1440 O   0  0  0  0  0  0  0  0  0  0  0  0
  -34.2950  -68.4320   -7.0280 C   0  0  0  0  0  0  0  0  0  0  0  0
  -33.0910  -68.7880   -6.1900 C   0  0  0  0  0  0  0  0  0  0  0  0
  -33.1830  -70.1700   -5.5490 C   0  0  0  0  0  0  0  0  0  0  0  0
  -35.1370  -67.5340   -6.5020 N   0  0  0  0  0  0  0  0  0  0  0  0
  -35.4350  -67.4780   -5.0860 C   0  0  0  0  0  0  0  0  0  0  0  0
  -36.8840  -67.6830   -4.7810 C   0  0  0  0  0  0  0  0  0  0  0  0
  -37.6680  -68.6610   -5.3500 N   0  0  0  0  0  0  0  0  0  0  0  0
  -38.8550  -68.6060   -4.6550 C   0  0  0  0  0  0  0  0  0  0  0  0
  -38.8150  -67.6430   -3.7670 N   0  0  0  0  0  0  0  0  0  0  0  0
  -37.5530  -67.0490   -3.8500 N   0  0  0  0  0  0  0  0  0  0  0  0
  -37.3960  -69.5860   -6.4710 C   0  0  0  0  0  0  0  0  0  0  0  0
  -38.6170  -70.3820   -6.9000 C   0  0  0  0  0  0  0  0  0  0  0  0
  -39.4290  -70.8280   -5.7000 C   0  0  0  0  0  0  0  0  0  0  0  0
  -39.9180  -69.6260   -4.9090 C   0  0  0  0  0  0  0  0  0  0  0  0
  4  3  1  0
  3  2  1  0
  2  1  2  0
  5  2  1  0
  6  5  1  0
  7  6  1  0
  7 11  2  0
 11 10  1  0
 10  9  2  0
  9 15  1  0
 15 14  1  0
 14 13  1  0
 13 12  1  0
 12  8  1  0
  8  7  1  0
  9  8  1  0
M  END
$$$$

