DNV2_NS5A-x1037_A_1701_1_6izz+A+903+1
     RDKit          3D

  7  7  0  0  0  0  0  0  0  0999 V2000
  -26.1070  -59.0750  -21.2850 O   0  0  0  0  0  0  0  0  0  0  0  0
  -25.7180  -60.4450  -21.0960 S   0  0  0  0  0  0  0  0  0  0  0  0
  -24.6970  -60.7510  -20.1300 O   0  0  0  0  0  0  0  0  0  0  0  0
  -25.5670  -61.3400  -22.6350 C   0  0  0  0  0  0  0  0  0  0  0  0
  -27.1190  -61.5510  -20.9870 C   0  0  0  0  0  0  0  0  0  0  0  0
  -26.9450  -61.9860  -22.4490 C   0  0  0  0  0  0  0  0  0  0  0  0
  -27.9580  -61.3300  -23.2230 O   0  0  0  0  0  0  0  0  0  0  0  0
  7  6  1  0
  6  4  1  0
  4  2  1  0
  3  2  2  0
  2  1  2  0
  5  2  1  0
  6  5  1  0
M  END
$$$$

