Zika_NS5A-x0411_A_1107_1_Zika_NS5A-x0351+A+1112+1
     RDKit          3D

 18 19  0  0  0  0  0  0  0  0999 V2000
  -26.1440  -31.6230  -22.2200 O   0  0  0  0  0  0  0  0  0  0  0  0
  -25.2710  -31.3850  -21.3840 C   0  0  0  0  0  0  0  0  0  0  0  0
  -25.5410  -30.8030  -20.1630 N   0  0  0  0  0  0  0  0  0  0  0  0
  -26.8110  -30.4430  -19.6260 C   0  0  0  0  0  0  0  0  0  0  0  0
  -26.9660  -30.4870  -18.2440 C   0  0  0  0  0  0  0  0  0  0  0  0
  -28.2280  -30.3030  -17.7120 C   0  0  0  0  0  0  0  0  0  0  0  0
  -29.3150  -30.0900  -18.4540 N   0  0  0  0  0  0  0  0  0  0  0  0
  -29.1430  -30.0210  -19.7810 C   0  0  0  0  0  0  0  0  0  0  0  0
  -27.9240  -30.1710  -20.4110 C   0  0  0  0  0  0  0  0  0  0  0  0
  -23.9230  -31.6330  -21.5750 N   0  0  0  0  0  0  0  0  0  0  0  0
  -23.2810  -32.2240  -22.7030 C   0  0  0  0  0  0  0  0  0  0  0  0
  -21.8900  -32.3380  -22.7020 C   0  0  0  0  0  0  0  0  0  0  0  0
  -21.2380  -32.9890  -23.7400 C   0  0  0  0  0  0  0  0  0  0  0  0
  -24.0040  -32.7560  -23.7770 C   0  0  0  0  0  0  0  0  0  0  0  0
  -23.3530  -33.4130  -24.8110 C   0  0  0  0  0  0  0  0  0  0  0  0
  -21.9710  -33.5320  -24.7940 C   0  0  0  0  0  0  0  0  0  0  0  0
  -21.3580  -34.1360  -25.8640 O   0  0  0  0  0  0  0  0  0  0  0  0
  -21.6580  -35.5090  -26.1570 C   0  0  0  0  0  0  0  0  0  0  0  0
 18 17  1  0
 17 16  1  0
 16 13  1  0
 13 12  2  0
 12 11  1  0
 11 10  1  0
 10  2  1  0
  2  1  2  0
  3  2  1  0
  4  3  1  0
  4  9  2  0
  9  8  1  0
  8  7  2  0
  7  6  1  0
  6  5  2  0
  5  4  1  0
 14 11  2  0
 15 14  1  0
 16 15  2  0
M  END
$$$$

