Zika_NS5A-x0496_A_1101_1_Zika_NS5A-x0411+A+1104+1
     RDKit          3D

 15 16  0  0  0  0  0  0  0  0999 V2000
  -12.3990  -25.5850  -21.5700 N   0  0  0  0  0  0  0  0  0  0  0  0
  -13.4130  -25.3320  -20.7580 C   0  0  0  0  0  0  0  0  0  0  0  0
  -13.6840  -26.2760  -19.3320 S   0  0  0  0  0  0  0  0  0  0  0  0
  -14.3080  -24.4080  -20.9670 N   0  0  0  0  0  0  0  0  0  0  0  0
  -15.2770  -24.4360  -19.9860 C   0  0  0  0  0  0  0  0  0  0  0  0
  -15.1120  -25.3770  -19.0070 C   0  0  0  0  0  0  0  0  0  0  0  0
  -15.9590  -25.7060  -17.8140 C   0  0  0  0  0  0  0  0  0  0  0  0
  -16.3880  -23.4910  -20.1140 C   0  0  0  0  0  0  0  0  0  0  0  0
  -16.1090  -22.1900  -20.4920 C   0  0  0  0  0  0  0  0  0  0  0  0
  -17.1270  -21.2800  -20.7390 C   0  0  0  0  0  0  0  0  0  0  0  0
  -16.7710  -19.8720  -21.1220 C   0  0  0  0  0  0  0  0  0  0  0  0
  -18.4690  -21.6890  -20.6150 C   0  0  0  0  0  0  0  0  0  0  0  0
  -19.6010  -20.7740  -20.9900 C   0  0  0  0  0  0  0  0  0  0  0  0
  -18.7330  -22.9890  -20.1970 C   0  0  0  0  0  0  0  0  0  0  0  0
  -17.7100  -23.8810  -19.9450 C   0  0  0  0  0  0  0  0  0  0  0  0
  7  6  1  0
  6  3  1  0
  3  2  1  0
  2  1  1  0
  4  2  2  0
  5  4  1  0
  6  5  2  0
  8  5  1  0
  8 15  2  0
 15 14  1  0
 14 12  2  0
 13 12  1  0
 12 10  1  0
 11 10  1  0
 10  9  2  0
  9  8  1  0
M  END
$$$$

