DNV2_NS5A-x0851_A_1701_1_DNV2_NS5A-x0471+A+1608+1
     RDKit          3D

 13 13  0  0  0  0  0  0  0  0999 V2000
  -27.4940  -28.2950  -36.0080 O   0  0  0  0  0  0  0  0  0  0  0  0
  -27.8310  -29.6350  -36.3650 S   0  0  0  0  0  0  0  0  0  0  0  0
  -26.9310  -30.6910  -36.0210 O   0  0  0  0  0  0  0  0  0  0  0  0
  -29.4160  -30.0160  -35.7190 C   0  0  0  0  0  0  0  0  0  0  0  0
  -27.9700  -29.6620  -38.0040 N   0  0  0  0  0  0  0  0  0  0  0  0
  -28.3890  -28.4040  -38.6920 C   0  0  1  0  0  0  0  0  0  0  0  0
  -27.2110  -27.5760  -39.1800 C   0  0  0  0  0  0  0  0  0  0  0  0
  -29.3890  -28.7210  -39.7940 C   0  0  0  0  0  0  0  0  0  0  0  0
  -30.3590  -29.8260  -39.3890 C   0  0  0  0  0  0  0  0  0  0  0  0
  -29.7010  -31.1540  -39.0190 C   0  0  0  0  0  0  0  0  0  0  0  0
  -28.2290  -30.9850  -38.6510 C   0  0  1  0  0  0  0  0  0  0  0  0
  -27.2930  -31.2290  -39.8240 C   0  0  0  0  0  0  0  0  0  0  0  0
  -25.9760  -30.8040  -39.4950 O   0  0  0  0  0  0  0  0  0  0  0  0
 13 12  1  0
 11 12  1  6
 11  5  1  0
  5  2  1  0
  4  2  1  0
  3  2  2  0
  2  1  2  0
  6  5  1  0
  6  7  1  6
  8  6  1  0
  9  8  1  0
 10  9  1  0
 11 10  1  0
M  END
$$$$

