Zika_NS5A-x0415_A_1101_1_Zika_NS5A-x0041+A+1112+1
     RDKit          3D

 13 14  0  0  0  0  0  0  0  0999 V2000
  -31.5600  -11.5890  -26.5210 F   0  0  0  0  0  0  0  0  0  0  0  0
  -32.2340  -12.6960  -26.9320 C   0  0  0  0  0  0  0  0  0  0  0  0
  -33.3010  -13.1200  -26.1800 C   0  0  0  0  0  0  0  0  0  0  0  0
  -34.0290  -14.2250  -26.6110 C   0  0  0  0  0  0  0  0  0  0  0  0
  -33.6390  -14.8730  -27.7760 C   0  0  0  0  0  0  0  0  0  0  0  0
  -32.5530  -14.4200  -28.5100 C   0  0  0  0  0  0  0  0  0  0  0  0
  -31.8320  -13.3150  -28.0850 C   0  0  0  0  0  0  0  0  0  0  0  0
  -35.2620  -14.6760  -25.8500 C   0  0  1  0  0  0  0  0  0  0  0  0
  -36.4450  -14.6780  -26.7340 N   0  0  0  0  0  0  0  0  0  0  0  0
  -37.6710  -15.0370  -26.0080 C   0  0  0  0  0  0  0  0  0  0  0  0
  -37.5680  -16.4110  -25.4130 C   0  0  0  0  0  0  0  0  0  0  0  0
  -36.3650  -16.4850  -24.4910 C   0  0  0  0  0  0  0  0  0  0  0  0
  -35.0880  -16.0450  -25.2020 C   0  0  0  0  0  0  0  0  0  0  0  0
  2  1  1  0
  2  7  2  0
  7  6  1  0
  6  5  2  0
  5  4  1  0
  4  3  2  0
  3  2  1  0
  8  4  1  6
  8 13  1  0
 13 12  1  0
 12 11  1  0
 11 10  1  0
 10  9  1  0
  9  8  1  0
M  END
$$$$

