5iq6_A_1003_1_3vws+A+1003+1
     RDKit          3D

 42 47  0  0  0  0  0  0  0  0999 V2000
  -21.8670  -30.1690  -19.6590 O   0  0  0  0  0  0  0  0  0  0  0  0
  -21.8620  -31.2730  -13.7260 C   0  0  0  0  0  0  0  0  0  0  0  0
  -23.1170  -30.5000  -15.7300 C   0  0  0  0  0  0  0  0  0  0  0  0
  -19.0010  -31.5900  -15.8010 O   0  0  0  0  0  0  0  0  0  0  0  0
  -24.0040  -30.1280  -16.7360 C   0  0  0  0  0  0  0  0  0  0  0  0
  -21.0620  -31.1710  -14.8650 N   0  0  0  0  0  0  0  0  0  0  0  0
  -23.5510  -30.0090  -18.0370 C   0  0  0  0  0  0  0  0  0  0  0  0
  -22.2160  -30.2470  -18.3270 C   0  0  0  0  0  0  0  0  0  0  0  0
  -20.6860  -30.9060  -20.1270 C   0  0  0  0  0  0  0  0  0  0  0  0
  -22.0580  -34.3350  -17.1820 O   0  0  0  0  0  0  0  0  0  0  0  0
  -21.1110  -31.5840  -21.4100 C   0  0  0  0  0  0  0  0  0  0  0  0
  -21.5080  -30.5580  -22.4680 C   0  0  0  0  0  0  0  0  0  0  0  0
  -20.3990  -29.5470  -22.7050 C   0  0  0  0  0  0  0  0  0  0  0  0
  -19.9730  -28.8890  -21.4070 C   0  0  0  0  0  0  0  0  0  0  0  0
  -19.5640  -29.9240  -20.3660 C   0  0  0  0  0  0  0  0  0  0  0  0
  -21.3140  -30.5830  -17.3260 C   0  0  0  0  0  0  0  0  0  0  0  0
  -19.6890  -31.5390  -14.7900 C   0  0  0  0  0  0  0  0  0  0  0  0
  -21.7660  -30.7360  -16.0170 C   0  0  0  0  0  0  0  0  0  0  0  0
  -23.4960  -30.7810  -14.0510 S   0  0  0  0  0  0  0  0  0  0  0  0
  -19.1710  -31.8700  -13.4660 C   0  0  0  0  0  0  0  0  0  0  0  0
  -17.7100  -32.0440  -13.2650 C   0  0  0  0  0  0  0  0  0  0  0  0
  -16.9630  -31.0640  -12.6130 C   0  0  0  0  0  0  0  0  0  0  0  0
  -15.5970  -31.2170  -12.4470 C   0  0  0  0  0  0  0  0  0  0  0  0
  -14.9600  -32.3440  -12.9250 C   0  0  0  0  0  0  0  0  0  0  0  0
  -15.6890  -33.3240  -13.5690 C   0  0  0  0  0  0  0  0  0  0  0  0
  -17.0560  -33.1790  -13.7380 C   0  0  0  0  0  0  0  0  0  0  0  0
  -20.0240  -31.9960  -12.4260 C   0  0  0  0  0  0  0  0  0  0  0  0
  -21.4130  -31.7130  -12.5200 C   0  0  0  0  0  0  0  0  0  0  0  0
  -22.2920  -31.9330  -11.3360 C   0  0  0  0  0  0  0  0  0  0  0  0
  -23.0220  -31.0390  -10.9090 O   0  0  0  0  0  0  0  0  0  0  0  0
  -22.2080  -33.1540  -10.7760 N   0  0  0  0  0  0  0  0  0  0  0  0
  -23.3000  -34.1210  -10.7470 C   0  0  2  0  0  0  0  0  0  0  0  0
  -22.7920  -35.5490  -10.5690 C   0  0  0  0  0  0  0  0  0  0  0  0
  -21.6110  -35.8230  -10.4830 O   0  0  0  0  0  0  0  0  0  0  0  0
  -23.7510  -36.4280  -10.5030 O   0  0  0  0  0  0  0  0  0  0  0  0
  -24.2500  -34.0020  -11.9600 C   0  0  0  0  0  0  0  0  0  0  0  0
  -23.6620  -34.1440  -13.3470 C   0  0  0  0  0  0  0  0  0  0  0  0
  -24.4210  -33.8060  -14.4590 C   0  0  0  0  0  0  0  0  0  0  0  0
  -23.8920  -33.8680  -15.7360 C   0  0  0  0  0  0  0  0  0  0  0  0
  -22.5840  -34.2850  -15.9240 C   0  0  0  0  0  0  0  0  0  0  0  0
  -21.8160  -34.6450  -14.8250 C   0  0  0  0  0  0  0  0  0  0  0  0
  -22.3550  -34.5730  -13.5520 C   0  0  0  0  0  0  0  0  0  0  0  0
 39 38  2  0
 39 40  1  0
 38 37  1  0
 10 40  1  0
 40 41  2  0
 35 33  2  0
 12 11  1  0
 12 13  1  0
 11  9  1  0
 37 36  1  0
 37 42  2  0
 41 42  1  0
 32 36  1  6
 33 32  1  0
 33 34  1  0
  7  5  2  0
  7  8  1  0
  5  3  1  0
  1  9  1  0
  1  8  1  0
  9 15  1  0
 13 14  1  0
 32 31  1  0
  8 16  2  0
  3 19  1  0
  3 18  2  0
 19  2  1  0
 16 18  1  0
 18  6  1  0
 14 15  1  0
 31 29  1  0
  2  6  1  0
  2 28  2  0
  6 17  1  0
 29 28  1  0
 29 30  2  0
 28 27  1  0
  4 17  2  0
 17 20  1  0
 27 20  2  0
 20 21  1  0
 26 21  1  0
 26 25  2  0
 21 22  2  0
 25 24  1  0
 22 23  1  0
 24 23  2  0
M  END
$$$$

