Zika_NS5A-x0483_A_1112_1_Zika_NS5A-x0351+A+1112+1
     RDKit          3D

 17 18  0  0  0  0  0  0  0  0999 V2000
  -29.1540  -28.7900  -17.1470 F   0  0  0  0  0  0  0  0  0  0  0  0
  -28.2140  -29.2590  -18.0100 C   0  0  0  0  0  0  0  0  0  0  0  0
  -26.9030  -29.2670  -17.6050 C   0  0  0  0  0  0  0  0  0  0  0  0
  -25.9600  -29.8420  -18.4390 C   0  0  0  0  0  0  0  0  0  0  0  0
  -28.6270  -29.7570  -19.2180 C   0  0  0  0  0  0  0  0  0  0  0  0
  -27.6800  -30.3300  -20.0490 C   0  0  0  0  0  0  0  0  0  0  0  0
  -26.3430  -30.3960  -19.6580 C   0  0  0  0  0  0  0  0  0  0  0  0
  -25.3650  -31.1020  -20.4030 N   0  0  0  0  0  0  0  0  0  0  0  0
  -25.3940  -31.3280  -21.7440 C   0  0  0  0  0  0  0  0  0  0  0  0
  -26.3100  -30.9230  -22.4570 O   0  0  0  0  0  0  0  0  0  0  0  0
  -24.3490  -32.0440  -22.2610 N   0  0  0  0  0  0  0  0  0  0  0  0
  -24.3310  -32.0160  -23.7320 C   0  0  0  0  0  0  0  0  0  0  0  0
  -23.5500  -33.1910  -24.2760 C   0  0  0  0  0  0  0  0  0  0  0  0
  -23.0060  -32.1660  -21.6670 C   0  0  0  0  0  0  0  0  0  0  0  0
  -22.2380  -33.3270  -22.2970 C   0  0  0  0  0  0  0  0  0  0  0  0
  -22.1900  -33.1910  -23.7510 N   0  0  0  0  0  0  0  0  0  0  0  0
  -21.4090  -34.2680  -24.3500 C   0  0  0  0  0  0  0  0  0  0  0  0
 17 16  1  0
 16 13  1  0
 13 12  1  0
 12 11  1  0
 14 11  1  0
 15 14  1  0
 16 15  1  0
 11  9  1  0
 10  9  2  0
  9  8  1  0
  8  7  1  0
  7  4  2  0
  4  3  1  0
  3  2  2  0
  2  1  1  0
  5  2  1  0
  6  5  2  0
  7  6  1  0
M  END
$$$$

