Zika_NS5A-x0437_A_1112_1_Zika_NS5A-x0283+A+1101+1
     RDKit          3D

 15 16  0  0  0  0  0  0  0  0999 V2000
  -31.4750  -40.0830  -12.7800 F   0  0  0  0  0  0  0  0  0  0  0  0
  -31.6850  -41.3640  -12.4090 C   0  0  0  0  0  0  0  0  0  0  0  0
  -32.8770  -41.9590  -12.7730 C   0  0  0  0  0  0  0  0  0  0  0  0
  -33.0950  -43.2570  -12.3160 C   0  0  0  0  0  0  0  0  0  0  0  0
  -32.1500  -43.9090  -11.5400 C   0  0  0  0  0  0  0  0  0  0  0  0
  -30.9690  -43.2830  -11.2170 C   0  0  0  0  0  0  0  0  0  0  0  0
  -30.7230  -41.9940  -11.6580 C   0  0  0  0  0  0  0  0  0  0  0  0
  -33.8830  -41.2450  -13.6390 C   0  0  0  0  0  0  0  0  0  0  0  0
  -34.6620  -42.2010  -14.4320 N   0  0  0  0  0  0  0  0  0  0  0  0
  -34.3720  -42.1540  -15.8740 C   0  0  0  0  0  0  0  0  0  0  0  0
  -35.1960  -41.0380  -16.4930 C   0  0  0  0  0  0  0  0  0  0  0  0
  -35.1070  -41.0690  -17.9990 C   0  0  0  0  0  0  0  0  0  0  0  0
  -35.4850  -42.3390  -18.5160 O   0  0  0  0  0  0  0  0  0  0  0  0
  -34.6010  -43.3510  -18.0330 C   0  0  0  0  0  0  0  0  0  0  0  0
  -34.6850  -43.4830  -16.5330 C   0  0  0  0  0  0  0  0  0  0  0  0
  2  1  1  0
  2  7  2  0
  7  6  1  0
  6  5  2  0
  5  4  1  0
  4  3  2  0
  3  2  1  0
  8  3  1  0
  9  8  1  0
 10  9  1  0
 10 15  1  0
 15 14  1  0
 14 13  1  0
 13 12  1  0
 12 11  1  0
 11 10  1  0
M  END
$$$$

