DNV2_NS5A-x0162_A_1707_1_DNV2_NS5A-x0249+A+1707+1
     RDKit          3D

 16 17  0  0  0  0  0  0  0  0999 V2000
   -8.6690  -71.5540  -20.9660 O   0  0  0  0  0  0  0  0  0  0  0  0
   -8.7100  -71.6110  -19.7430 C   0  0  0  0  0  0  0  0  0  0  0  0
   -9.9510  -71.2810  -18.9720 C   0  0  0  0  0  0  0  0  0  0  0  0
   -7.6500  -71.9740  -18.9890 N   0  0  0  0  0  0  0  0  0  0  0  0
   -6.2970  -71.6140  -19.1690 C   0  0  0  0  0  0  0  0  0  0  0  0
   -5.9630  -70.4710  -19.8830 C   0  0  0  0  0  0  0  0  0  0  0  0
   -4.6370  -70.1450  -20.0980 C   0  0  0  0  0  0  0  0  0  0  0  0
   -3.6180  -70.9510  -19.6040 C   0  0  0  0  0  0  0  0  0  0  0  0
   -3.9600  -72.0870  -18.8780 C   0  0  0  0  0  0  0  0  0  0  0  0
   -5.2850  -72.4160  -18.6610 C   0  0  0  0  0  0  0  0  0  0  0  0
   -2.2070  -70.6210  -19.8600 C   0  0  0  0  0  0  0  0  0  0  0  0
   -1.8620  -69.3230  -20.2220 N   0  0  0  0  0  0  0  0  0  0  0  0
   -0.5650  -69.2210  -20.4000 C   0  0  0  0  0  0  0  0  0  0  0  0
    0.0610  -68.0930  -20.7410 N   0  0  0  0  0  0  0  0  0  0  0  0
    0.3220  -70.7010  -20.1440 S   0  0  0  0  0  0  0  0  0  0  0  0
   -1.1590  -71.4820  -19.7750 C   0  0  0  0  0  0  0  0  0  0  0  0
  3  2  1  0
  2  1  2  0
  4  2  1  0
  5  4  1  0
  5 10  2  0
 10  9  1  0
  9  8  2  0
  8  7  1  0
  7  6  2  0
  6  5  1  0
 11  8  1  0
 11 16  2  0
 16 15  1  0
 15 13  1  0
 14 13  1  0
 13 12  2  0
 12 11  1  0
M  END
$$$$

