DNV2_NS5A-x0249_A_1707_1_DNV2_NS5A-x0249+A+1707+1
     RDKit          3D

 17 18  0  0  0  0  0  0  0  0999 V2000
   -0.6750  -70.9390  -20.4750 O   0  0  0  0  0  0  0  0  0  0  0  0
   -0.8330  -69.7230  -20.4510 C   0  0  0  0  0  0  0  0  0  0  0  0
    0.3170  -68.7730  -20.5950 C   0  0  0  0  0  0  0  0  0  0  0  0
   -2.0440  -69.1340  -20.3010 N   0  0  0  0  0  0  0  0  0  0  0  0
   -3.2830  -69.7220  -19.9540 C   0  0  0  0  0  0  0  0  0  0  0  0
   -3.3610  -70.9530  -19.3150 C   0  0  0  0  0  0  0  0  0  0  0  0
   -4.5900  -71.4830  -18.9660 C   0  0  0  0  0  0  0  0  0  0  0  0
   -5.7590  -70.7900  -19.2530 C   0  0  0  0  0  0  0  0  0  0  0  0
   -5.6800  -69.5600  -19.8920 C   0  0  0  0  0  0  0  0  0  0  0  0
   -4.4510  -69.0320  -20.2420 C   0  0  0  0  0  0  0  0  0  0  0  0
   -7.0120  -71.3340  -18.9090 N   0  0  0  0  0  0  0  0  0  0  0  0
   -8.2770  -70.9640  -19.4030 C   0  0  0  0  0  0  0  0  0  0  0  0
   -8.4540  -70.6550  -20.7460 C   0  0  0  0  0  0  0  0  0  0  0  0
   -9.7020  -70.2790  -21.2120 C   0  0  0  0  0  0  0  0  0  0  0  0
  -10.7740  -70.2100  -20.3510 C   0  0  0  0  0  0  0  0  0  0  0  0
  -10.6050  -70.5170  -19.0210 C   0  0  0  0  0  0  0  0  0  0  0  0
   -9.3640  -70.8940  -18.5400 C   0  0  0  0  0  0  0  0  0  0  0  0
  3  2  1  0
  2  1  2  0
  4  2  1  0
  5  4  1  0
  5 10  2  0
 10  9  1  0
  9  8  2  0
 11  8  1  0
 12 11  1  0
 12 17  2  0
 17 16  1  0
 16 15  2  0
 15 14  1  0
 14 13  2  0
 13 12  1  0
  8  7  1  0
  7  6  2  0
  6  5  1  0
M  END
$$$$

