DNV2_NS5A-x0258_A_1707_1_DNV2_NS5A-x0249+A+1707+1
     RDKit          3D

 15 16  0  0  0  0  0  0  0  0999 V2000
   -3.9170  -69.6220  -20.6960 O   0  0  0  0  0  0  0  0  0  0  0  0
   -3.8620  -70.8180  -19.9190 S   0  0  0  0  0  0  0  0  0  0  0  0
   -3.6620  -70.6730  -18.5120 O   0  0  0  0  0  0  0  0  0  0  0  0
   -2.6920  -71.9720  -20.6110 C   0  0  0  0  0  0  0  0  0  0  0  0
   -3.5490  -73.1520  -21.0280 C   0  0  0  0  0  0  0  0  0  0  0  0
   -4.9060  -72.5660  -21.3710 C   0  0  0  0  0  0  0  0  0  0  0  0
   -5.2320  -71.7280  -20.1940 N   0  0  0  0  0  0  0  0  0  0  0  0
   -6.2710  -72.1690  -19.2280 C   0  0  0  0  0  0  0  0  0  0  0  0
   -7.7020  -71.8290  -19.5960 C   0  0  0  0  0  0  0  0  0  0  0  0
   -8.0040  -71.1350  -20.7650 C   0  0  0  0  0  0  0  0  0  0  0  0
   -9.3180  -70.8280  -21.0370 C   0  0  0  0  0  0  0  0  0  0  0  0
   -9.5990  -70.1630  -22.1910 F   0  0  0  0  0  0  0  0  0  0  0  0
   -8.7440  -72.1950  -18.7520 C   0  0  0  0  0  0  0  0  0  0  0  0
  -10.0580  -71.8680  -19.0580 C   0  0  0  0  0  0  0  0  0  0  0  0
  -10.3570  -71.1680  -20.2150 C   0  0  0  0  0  0  0  0  0  0  0  0
 12 11  1  0
 11 15  2  0
 15 14  1  0
 14 13  2  0
 13  9  1  0
  9  8  1  0
  8  7  1  0
  7  6  1  0
  6  5  1  0
  5  4  1  0
  4  2  1  0
  7  2  1  0
  3  2  2  0
  2  1  2  0
 10  9  2  0
 11 10  1  0
M  END
$$$$

