6izx_A_912_1_DNV2_NS5A-x0254+A+1701+1
     RDKit          3D

 14 15  0  0  0  0  0  0  0  0999 V2000
  -15.7510  -43.8290  -22.4670 C   0  0  0  0  0  0  0  0  0  0  0  0
  -15.8490  -42.0870  -24.3960 C   0  0  0  0  0  0  0  0  0  0  0  0
  -18.2930  -38.5390  -26.6440 C   0  0  0  0  0  0  0  0  0  0  0  0
  -17.1520  -39.4290  -27.1950 C   0  0  0  0  0  0  0  0  0  0  0  0
  -15.4490  -40.0890  -25.6840 C   0  0  0  0  0  0  0  0  0  0  0  0
  -14.3320  -39.7530  -24.8350 C   0  0  0  0  0  0  0  0  0  0  0  0
  -13.9800  -40.5950  -23.7550 C   0  0  0  0  0  0  0  0  0  0  0  0
  -14.7050  -41.7520  -23.5260 C   0  0  0  0  0  0  0  0  0  0  0  0
  -16.1890  -41.2640  -25.4380 C   0  0  0  0  0  0  0  0  0  0  0  0
  -17.3790  -40.2730  -28.0120 O   0  0  0  0  0  0  0  0  0  0  0  0
  -15.8210  -39.2640  -26.7530 O   0  0  0  0  0  0  0  0  0  0  0  0
  -14.5710  -42.9320  -22.3710 O   0  0  0  0  0  0  0  0  0  0  0  0
  -16.0720  -44.6540  -21.6670 O   0  0  0  0  0  0  0  0  0  0  0  0
  -16.5130  -43.4770  -23.8710 S   0  0  0  0  0  0  0  0  0  0  0  0
 12  8  1  0
 12  1  1  0
  7  8  2  0
  7  6  1  0
 13  1  2  0
  8  2  1  0
  1 14  1  0
  6  5  2  0
  2 14  1  0
  2  9  2  0
  5  9  1  0
  5 11  1  0
 11  4  1  0
  4 10  2  0
  4  3  1  0
M  END
$$$$

