Zika_NS5A-x0107_A_1110_1_Zika_NS5A-x0351+A+1112+1
     RDKit          3D

 11 12  0  0  0  0  0  0  0  0999 V2000
  -28.7550  -30.5520  -15.3790 C   0  0  0  0  0  0  0  0  0  0  0  0
  -27.7590  -29.6450  -15.8380 O   0  0  0  0  0  0  0  0  0  0  0  0
  -27.1650  -29.9140  -17.0370 C   0  0  0  0  0  0  0  0  0  0  0  0
  -28.0240  -29.9100  -18.1480 C   0  0  0  0  0  0  0  0  0  0  0  0
  -29.4330  -29.7010  -18.3320 C   0  0  0  0  0  0  0  0  0  0  0  0
  -29.6810  -29.8560  -19.6560 C   0  0  0  0  0  0  0  0  0  0  0  0
  -28.5190  -30.1470  -20.3210 N   0  0  0  0  0  0  0  0  0  0  0  0
  -27.4840  -30.1940  -19.4180 C   0  0  0  0  0  0  0  0  0  0  0  0
  -26.1330  -30.4860  -19.5890 C   0  0  0  0  0  0  0  0  0  0  0  0
  -25.3050  -30.4840  -18.4690 C   0  0  0  0  0  0  0  0  0  0  0  0
  -25.8110  -30.1960  -17.2020 C   0  0  0  0  0  0  0  0  0  0  0  0
  2  1  1  0
  3  2  1  0
  3 11  2  0
 11 10  1  0
 10  9  2  0
  9  8  1  0
  8  7  1  0
  7  6  1  0
  6  5  2  0
  5  4  1  0
  4  3  1  0
  8  4  2  0
M  END
$$$$

