Zika_NS5A-x0659_A_1112_1_Zika_NS5A-x0481+A+1201+1
     RDKit          3D

 15 17  0  0  0  0  0  0  0  0999 V2000
  -19.5170  -67.9580  -22.0400 O   0  0  0  0  0  0  0  0  0  0  0  0
  -19.8910  -68.8170  -21.2580 C   0  0  0  0  0  0  0  0  0  0  0  0
  -20.7400  -68.4900  -20.0780 C   0  0  0  0  0  0  0  0  0  0  0  0
  -19.4830  -70.1020  -21.4020 N   0  0  0  0  0  0  0  0  0  0  0  0
  -19.9430  -71.2940  -20.6740 C   0  0  1  0  0  0  0  0  0  0  0  0
  -19.9520  -72.3520  -21.7900 C   0  0  0  0  0  0  0  0  0  0  0  0
  -18.8830  -71.8630  -22.8050 C   0  0  0  0  0  0  0  0  0  0  0  0
  -18.3540  -70.5380  -22.2340 C   0  0  2  0  0  0  0  0  0  0  0  0
  -18.8330  -71.8090  -19.7740 C   0  0  0  0  0  0  0  0  0  0  0  0
  -19.0850  -72.5710  -18.6390 C   0  0  0  0  0  0  0  0  0  0  0  0
  -18.0310  -72.9420  -17.8210 C   0  0  0  0  0  0  0  0  0  0  0  0
  -16.7520  -72.5410  -18.1570 C   0  0  0  0  0  0  0  0  0  0  0  0
  -16.4650  -71.8130  -19.2450 N   0  0  0  0  0  0  0  0  0  0  0  0
  -17.4850  -71.4690  -20.0460 C   0  0  0  0  0  0  0  0  0  0  0  0
  -17.1420  -70.7510  -21.3310 C   0  0  0  0  0  0  0  0  0  0  0  0
  2  1  2  0
  4  2  1  0
  4  8  1  0
  8 15  1  1
 15 14  1  0
 14  9  2  0
 10  9  1  0
 11 10  2  0
 12 11  1  0
 13 12  2  0
 14 13  1  0
  9  5  1  0
  5  4  1  0
  5  6  1  6
  7  6  1  0
  8  7  1  0
  3  2  1  0
M  END
$$$$

