DNV2_NS5A-x0176_A_1701_1_DNV2_NS5A-x0249+A+1707+1
     RDKit          3D

 17 18  0  0  0  0  0  0  0  0999 V2000
   -5.8770  -72.4050  -17.4710 O   0  0  0  0  0  0  0  0  0  0  0  0
   -6.1460  -71.8840  -18.5340 C   0  0  0  0  0  0  0  0  0  0  0  0
   -5.0430  -71.4420  -19.4580 C   0  0  0  0  0  0  0  0  0  0  0  0
   -4.7340  -70.0950  -19.5860 C   0  0  0  0  0  0  0  0  0  0  0  0
   -5.4310  -69.2150  -18.8350 F   0  0  0  0  0  0  0  0  0  0  0  0
   -3.7650  -69.6130  -20.4320 C   0  0  0  0  0  0  0  0  0  0  0  0
   -3.0530  -70.5160  -21.2020 C   0  0  0  0  0  0  0  0  0  0  0  0
   -3.3110  -71.8740  -21.1130 C   0  0  0  0  0  0  0  0  0  0  0  0
   -4.2890  -72.3000  -20.2470 C   0  0  0  0  0  0  0  0  0  0  0  0
   -4.5290  -73.6250  -20.1480 F   0  0  0  0  0  0  0  0  0  0  0  0
   -7.4130  -71.6930  -18.9420 N   0  0  0  0  0  0  0  0  0  0  0  0
   -8.5400  -72.0800  -18.0870 C   0  0  0  0  0  0  0  0  0  0  0  0
   -9.4020  -70.9100  -17.6510 C   0  0  0  0  0  0  0  0  0  0  0  0
  -10.5400  -70.5730  -18.5950 C   0  0  0  0  0  0  0  0  0  0  0  0
  -10.1320  -70.2730  -20.0220 C   0  0  0  0  0  0  0  0  0  0  0  0
   -8.6660  -69.9530  -20.2300 C   0  0  0  0  0  0  0  0  0  0  0  0
   -7.7460  -71.1570  -20.2650 C   0  0  0  0  0  0  0  0  0  0  0  0
 10  9  1  0
  9  8  1  0
  8  7  2  0
  7  6  1  0
  6  4  2  0
  5  4  1  0
  4  3  1  0
  9  3  2  0
  3  2  1  0
  2  1  2  0
 11  2  1  0
 11 17  1  0
 17 16  1  0
 16 15  1  0
 15 14  1  0
 14 13  1  0
 13 12  1  0
 12 11  1  0
M  END
$$$$

