Zika_NS5A-x0471_A_1013_1_Zika_NS5A-x0193+A+1201+1
     RDKit          3D

 13 14  0  0  0  0  0  0  0  0999 V2000
  -26.8950  -44.6010  -19.3700 O   0  0  0  0  0  0  0  0  0  0  0  0
  -25.7490  -44.1720  -19.2520 C   0  0  0  0  0  0  0  0  0  0  0  0
  -25.3290  -43.1420  -20.1960 C   0  0  0  0  0  0  0  0  0  0  0  0
  -24.3400  -43.3010  -21.1570 C   0  0  0  0  0  0  0  0  0  0  0  0
  -24.2540  -42.1490  -21.8250 N   0  0  0  0  0  0  0  0  0  0  0  0
  -25.1270  -41.2280  -21.3610 N   0  0  0  0  0  0  0  0  0  0  0  0
  -25.7860  -41.8250  -20.3730 C   0  0  0  0  0  0  0  0  0  0  0  0
  -24.8790  -44.6010  -18.3140 N   0  0  0  0  0  0  0  0  0  0  0  0
  -23.5100  -44.1040  -18.1400 C   0  0  0  0  0  0  0  0  0  0  0  0
  -22.5420  -45.2550  -18.2320 C   0  0  0  0  0  0  0  0  0  0  0  0
  -22.8320  -46.2600  -17.2630 O   0  0  0  0  0  0  0  0  0  0  0  0
  -24.1650  -46.7580  -17.4420 C   0  0  0  0  0  0  0  0  0  0  0  0
  -25.1890  -45.6540  -17.3410 C   0  0  0  0  0  0  0  0  0  0  0  0
  2  1  2  0
  8  2  1  0
  8 13  1  0
 13 12  1  0
 12 11  1  0
 11 10  1  0
 10  9  1  0
  9  8  1  0
  3  2  1  0
  3  7  1  0
  7  6  2  0
  6  5  1  0
  5  4  1  0
  4  3  2  0
M  END
$$$$

