Zika_NS5A-x0364_A_1201_1_Zika_NS5A-x0351+A+1112+1
     RDKit          3D

 14 15  0  0  0  0  0  0  0  0999 V2000
  -21.5580  -27.4770  -20.1280 O   0  0  0  0  0  0  0  0  0  0  0  0
  -22.4970  -26.8890  -19.6080 C   0  0  0  0  0  0  0  0  0  0  0  0
  -22.3030  -25.6090  -18.8520 C   0  0  0  0  0  0  0  0  0  0  0  0
  -23.7430  -27.3820  -19.6330 N   0  0  0  0  0  0  0  0  0  0  0  0
  -24.9250  -26.5790  -19.9430 C   0  0  2  0  0  0  0  0  0  0  0  0
  -26.0820  -26.9280  -19.0170 C   0  0  0  0  0  0  0  0  0  0  0  0
  -26.7870  -28.2090  -19.4080 C   0  0  0  0  0  0  0  0  0  0  0  0
  -26.8480  -28.6100  -20.7500 C   0  0  0  0  0  0  0  0  0  0  0  0
  -26.0350  -27.9970  -21.6530 N   0  0  0  0  0  0  0  0  0  0  0  0
  -25.3240  -26.7650  -21.3970 C   0  0  0  0  0  0  0  0  0  0  0  0
  -27.5350  -28.9200  -18.4700 C   0  0  0  0  0  0  0  0  0  0  0  0
  -28.3720  -29.9530  -18.8610 C   0  0  0  0  0  0  0  0  0  0  0  0
  -28.4630  -30.3030  -20.1880 C   0  0  0  0  0  0  0  0  0  0  0  0
  -27.6980  -29.6470  -21.1390 C   0  0  0  0  0  0  0  0  0  0  0  0
  3  2  1  0
  2  1  2  0
  4  2  1  0
  5  4  1  1
  5 10  1  0
 10  9  1  0
  9  8  1  0
  8 14  2  0
 14 13  1  0
 13 12  2  0
 12 11  1  0
 11  7  2  0
  8  7  1  0
  7  6  1  0
  6  5  1  0
M  END
$$$$

