5f3z_A_1003_1_5i3p+A+1003+1
     RDKit          3D

 17 18  0  0  0  0  0  0  0  0999 V2000
  -15.2140  -44.1960  -17.2050 C   0  0  0  0  0  0  0  0  0  0  0  0
  -15.3060  -44.0670  -18.7190 C   0  0  0  0  0  0  0  0  0  0  0  0
  -14.3780  -43.2890  -19.4240 C   0  0  0  0  0  0  0  0  0  0  0  0
  -15.4940  -43.7830  -22.9020 O   0  0  0  0  0  0  0  0  0  0  0  0
  -16.7770  -42.4210  -17.0360 O   0  0  0  0  0  0  0  0  0  0  0  0
  -19.2550  -46.2000  -23.1400 C   0  0  0  0  0  0  0  0  0  0  0  0
  -16.3270  -44.7300  -19.3850 C   0  0  0  0  0  0  0  0  0  0  0  0
  -16.7530  -43.9010  -15.4240 O   0  0  0  0  0  0  0  0  0  0  0  0
  -16.3290  -43.4590  -16.5100 C   0  0  0  0  0  0  0  0  0  0  0  0
  -14.4180  -43.1820  -20.8110 C   0  0  0  0  0  0  0  0  0  0  0  0
  -15.4370  -43.8370  -21.5280 C   0  0  0  0  0  0  0  0  0  0  0  0
  -14.5170  -43.0760  -23.6690 C   0  0  0  0  0  0  0  0  0  0  0  0
  -16.4280  -44.6560  -20.7710 C   0  0  0  0  0  0  0  0  0  0  0  0
  -17.5040  -45.4480  -21.4270 C   0  0  0  0  0  0  0  0  0  0  0  0
  -18.1160  -46.6480  -21.0950 C   0  0  0  0  0  0  0  0  0  0  0  0
  -19.0830  -47.0270  -22.0370 C   0  0  0  0  0  0  0  0  0  0  0  0
  -18.1620  -44.8750  -22.9160 S   0  0  0  0  0  0  0  0  0  0  0  0
  6 16  2  0
  6 17  1  0
 16 15  1  0
 15 14  2  0
 17 14  1  0
 14 13  1  0
 13  7  1  0
 13 11  2  0
  4 11  1  0
  4 12  1  0
  7  2  2  0
 11 10  1  0
  2  1  1  0
  2  3  1  0
 10  3  2  0
  8  9  2  0
  1  9  1  0
  9  5  1  0
M  END
$$$$

