Zika_NS5A-x0193_A_1201_1_Zika_NS5A-x0193+A+1201+1
     RDKit          3D

 11 11  0  0  0  0  0  0  0  0999 V2000
  -22.9280  -45.0500  -16.8920 O   0  0  0  0  0  0  0  0  0  0  0  0
  -24.1310  -45.3890  -17.5880 S   0  0  0  0  0  0  0  0  0  0  0  0
  -24.4090  -46.7670  -17.8490 O   0  0  0  0  0  0  0  0  0  0  0  0
  -25.4970  -44.7130  -16.7180 C   0  0  0  0  0  0  0  0  0  0  0  0
  -24.0490  -44.6200  -19.0080 N   0  0  0  0  0  0  0  0  0  0  0  0
  -23.8280  -43.1660  -19.1340 C   0  0  0  0  0  0  0  0  0  0  0  0
  -24.5240  -42.6480  -20.3840 C   0  0  0  0  0  0  0  0  0  0  0  0
  -24.2040  -41.1840  -20.6150 C   0  0  0  0  0  0  0  0  0  0  0  0
  -22.7550  -40.9750  -20.7010 N   0  0  0  0  0  0  0  0  0  0  0  0
  -22.0970  -41.3750  -19.4580 C   0  0  0  0  0  0  0  0  0  0  0  0
  -22.3370  -42.8440  -19.1660 C   0  0  0  0  0  0  0  0  0  0  0  0
  4  2  1  0
  3  2  2  0
  2  1  2  0
  5  2  1  0
  6  5  1  0
  6 11  1  0
 11 10  1  0
 10  9  1  0
  9  8  1  0
  8  7  1  0
  7  6  1  0
M  END
$$$$

