Zika_NS5A-x0875_A_1013_1_Zika_NS5A-x0112+A+1201+1
     RDKit          3D

  7  7  0  0  0  0  0  0  0  0999 V2000
  -26.7830  -71.0310  -16.8020 N   0  0  0  0  0  0  0  0  0  0  0  0
  -26.8630  -71.5260  -15.7730 C   0  0  0  0  0  0  0  0  0  0  0  0
  -26.9260  -72.1030  -14.4590 C   0  0  0  0  0  0  0  0  0  0  0  0
  -27.9660  -72.9030  -14.0510 N   0  0  0  0  0  0  0  0  0  0  0  0
  -27.7040  -73.1920  -12.7850 C   0  0  0  0  0  0  0  0  0  0  0  0
  -26.5660  -72.6410  -12.3750 N   0  0  0  0  0  0  0  0  0  0  0  0
  -26.0560  -71.9410  -13.4250 C   0  0  0  0  0  0  0  0  0  0  0  0
  2  1  3  0
  3  2  1  0
  3  7  2  0
  7  6  1  0
  6  5  1  0
  5  4  2  0
  4  3  1  0
M  END
$$$$

