Zika_NS5A-x1047_A_1101_1_Zika_NS5A-x0903+A+1201+1
     RDKit          3D

 14 15  0  0  0  0  0  0  0  0999 V2000
   16.6620  -17.1150  -29.0680 F   0  0  0  0  0  0  0  0  0  0  0  0
   17.1490  -15.8460  -29.2050 C   0  0  0  0  0  0  0  0  0  0  0  0
   17.4480  -15.1310  -28.0740 C   0  0  0  0  0  0  0  0  0  0  0  0
   18.0270  -13.8840  -28.2210 C   0  0  0  0  0  0  0  0  0  0  0  0
   17.3610  -15.3590  -30.4670 C   0  0  0  0  0  0  0  0  0  0  0  0
   17.9300  -14.1030  -30.5950 C   0  0  0  0  0  0  0  0  0  0  0  0
   18.2940  -13.3580  -29.4780 C   0  0  0  0  0  0  0  0  0  0  0  0
   19.0470  -12.0470  -29.6150 C   0  0  2  0  0  0  0  0  0  0  0  0
   18.1760  -10.7670  -29.4800 C   0  0  0  0  0  0  0  0  0  0  0  0
   19.0300   -9.5240  -29.2170 C   0  0  0  0  0  0  0  0  0  0  0  0
   17.0460  -10.8550  -28.4520 C   0  0  0  0  0  0  0  0  0  0  0  0
   19.7610  -11.7940  -30.9630 C   0  0  0  0  0  0  0  0  0  0  0  0
   18.7350  -10.9550  -31.7880 C   0  0  0  0  0  0  0  0  0  0  0  0
   17.6110  -10.7010  -30.8360 N   0  0  0  0  0  0  0  0  0  0  0  0
 11  9  1  0
 10  9  1  0
  9 14  1  0
 14 13  1  0
 13 12  1  0
 12  8  1  0
  9  8  1  0
  8  7  1  6
  7  4  2  0
  4  3  1  0
  3  2  2  0
  2  1  1  0
  5  2  1  0
  6  5  2  0
  7  6  1  0
M  END
$$$$

